/*---------------------------------------------------------------------------*\
| =========                 |                                                 |
| \\      /  F ield         | OpenFOAM: The Open Source CFD Toolbox           |
|  \\    /   O peration     | Version:  4.x                                   |
|   \\  /    A nd           | Web:      www.OpenFOAM.org                      |
|    \\/     M anipulation  |                                                 |
\*---------------------------------------------------------------------------*/
Build  : 4.x-d214c8dfd5ba
Exec   : rhoPimpleFoam -parallel
Date   : Jan 21 2022
Time   : 02:27:25
Host   : "wjq"
PID    : 38233
Case   : /home/wjq/Desktop/NSCBC-openfoam/01-A1/mycases/helmholtzResonance/modelled
nProcs : 4
Slaves : 
3
(
"wjq.38234"
"wjq.38235"
"wjq.38236"
)

Pstream initialized with:
    floatTransfer      : 0
    nProcsSimpleSum    : 0
    commsType          : nonBlocking
    polling iterations : 0
sigFpe : Enabling floating point exception trapping (FOAM_SIGFPE).
fileModificationChecking : Monitoring run-time modified files using timeStampMaster
allowSystemOperations : Allowing user-supplied system call operations

// * * * * * * * * * * * * * * * * * * * * * * * * * * * * * * * * * * * * * //
Create time

Create mesh for time = 0


PIMPLE: no residual control data found. Calculations will employ 3 corrector loops

Reading thermophysical properties

Selecting thermodynamics package 
{
    type            hePsiThermo;
    mixture         pureMixture;
    transport       const;
    thermo          eConst;
    equationOfState perfectGas;
    specie          specie;
    energy          sensibleInternalEnergy;
}

Reading field U

Reading/calculating face flux field phi

Creating turbulence model

Selecting turbulence model type laminar
Creating field dpdt

Creating field kinetic energy K

No MRF models present

No finite volume options present

Courant Number mean: 0 max: 0

Starting time loop

--> FOAM Warning : 
    From function virtual void Foam::probes::findElements(const Foam::fvMesh&)
    in file probes/probes.C at line 119
    Did not find location (-0.045 0 0) in any cell. Skipping location.
--> FOAM Warning : 
    From function virtual void Foam::probes::findElements(const Foam::fvMesh&)
    in file probes/probes.C at line 119
    Did not find location (-0.045 0.02 0) in any cell. Skipping location.
--> FOAM Warning : 
    From function virtual void Foam::probes::findElements(const Foam::fvMesh&)
    in file probes/probes.C at line 152
    Location (0.0125 0 0) seems to be on multiple domains: cell 7059 on my domain 0 and face 8280 on some other domain.
This might happen if the probe location is on a processor patch. Change the location slightly to prevent this.
Courant Number mean: 0 max: 0
Time = 0.0001

PIMPLE: iteration 1
smoothSolver:  Solving for Ux, Initial residual = 0.9999997239, Final residual = 0.0004110034173, No Iterations 1
smoothSolver:  Solving for Uy, Initial residual = 0.9999997997, Final residual = 0.0003637236662, No Iterations 1
smoothSolver:  Solving for Uz, Initial residual = 0.9999997583, Final residual = 0.0003696163235, No Iterations 1
smoothSolver:  Solving for e, Initial residual = 0.3291841183, Final residual = 0.2297404716, No Iterations 1000
DICPCG:  Solving for p, Initial residual = 0.9999999997, Final residual = 0.00791294688, No Iterations 27
diagonal:  Solving for rho, Initial residual = 0, Final residual = 0, No Iterations 0
time step continuity errors : sum local = 2.403014957e-06, global = -1.856910535e-07, cumulative = -1.856910535e-07
rho max/min : 1.158756008 1.158622649
PIMPLE: iteration 2
smoothSolver:  Solving for Ux, Initial residual = 0.0007904747758, Final residual = 1.581860531e-07, No Iterations 1
smoothSolver:  Solving for Uy, Initial residual = 0.002196062043, Final residual = 5.699654549e-07, No Iterations 1
smoothSolver:  Solving for Uz, Initial residual = 0.002188422142, Final residual = 5.605682154e-07, No Iterations 1
smoothSolver:  Solving for e, Initial residual = 0.9999999999, Final residual = 0.0003462358061, No Iterations 1
DICPCG:  Solving for p, Initial residual = 0.0205003142, Final residual = 0.0001801818063, No Iterations 21
diagonal:  Solving for rho, Initial residual = 0, Final residual = 0, No Iterations 0
time step continuity errors : sum local = 2.72312285e-07, global = 8.410188531e-08, cumulative = -1.015891682e-07
rho max/min : 1.159217374 1.158112866
PIMPLE: iteration 3
smoothSolver:  Solving for Ux, Initial residual = 8.299908136e-05, Final residual = 1.193299866e-08, No Iterations 1
smoothSolver:  Solving for Uy, Initial residual = 0.0005947732693, Final residual = 1.579156106e-07, No Iterations 1
smoothSolver:  Solving for Uz, Initial residual = 0.0005926157241, Final residual = 1.575200994e-07, No Iterations 1
smoothSolver:  Solving for e, Initial residual = 0.3280554821, Final residual = 1.953831969e-07, No Iterations 2
DICPCG:  Solving for p, Initial residual = 0.006480310638, Final residual = 9.300802768e-07, No Iterations 42
diagonal:  Solving for rho, Initial residual = 0, Final residual = 0, No Iterations 0
time step continuity errors : sum local = 1.399053333e-09, global = 9.254960273e-11, cumulative = -1.014966185e-07
rho max/min : 1.158866757 1.158430989
ExecutionTime = 0.21 s  ClockTime = 0 s

Courant Number mean: 0.0002416610469 max: 0.006724595654
Time = 0.0002

PIMPLE: iteration 1
smoothSolver:  Solving for Ux, Initial residual = 0.1000322025, Final residual = 1.826095795e-05, No Iterations 1
smoothSolver:  Solving for Uy, Initial residual = 0.3333891573, Final residual = 6.979486229e-05, No Iterations 1
smoothSolver:  Solving for Uz, Initial residual = 0.3333966478, Final residual = 6.987325267e-05, No Iterations 1
smoothSolver:  Solving for e, Initial residual = 0.3946925005, Final residual = 0.0001154539547, No Iterations 1
DICPCG:  Solving for p, Initial residual = 0.1460321133, Final residual = 0.001195108666, No Iterations 30
diagonal:  Solving for rho, Initial residual = 0, Final residual = 0, No Iterations 0
time step continuity errors : sum local = 2.105872225e-06, global = -1.655145305e-07, cumulative = -2.670111491e-07
rho max/min : 1.158856099 1.158574144
PIMPLE: iteration 2
smoothSolver:  Solving for Ux, Initial residual = 0.0002888193244, Final residual = 1.430351804e-07, No Iterations 1
smoothSolver:  Solving for Uy, Initial residual = 0.0007999328004, Final residual = 2.385909661e-07, No Iterations 1
smoothSolver:  Solving for Uz, Initial residual = 0.0008005858201, Final residual = 2.473191423e-07, No Iterations 1
smoothSolver:  Solving for e, Initial residual = 0.09856570803, Final residual = 5.15913554e-05, No Iterations 1
DICPCG:  Solving for p, Initial residual = 0.0128221499, Final residual = 0.0001079411715, No Iterations 29
diagonal:  Solving for rho, Initial residual = 0, Final residual = 0, No Iterations 0
time step continuity errors : sum local = 3.122375058e-07, global = 1.150702807e-08, cumulative = -2.55504121e-07
rho max/min : 1.159230641 1.15808425
PIMPLE: iteration 3
smoothSolver:  Solving for Ux, Initial residual = 4.560020301e-05, Final residual = 2.847681504e-08, No Iterations 1
smoothSolver:  Solving for Uy, Initial residual = 0.0002456156547, Final residual = 7.511264527e-08, No Iterations 1
smoothSolver:  Solving for Uz, Initial residual = 0.0002443173378, Final residual = 7.166228256e-08, No Iterations 1
smoothSolver:  Solving for e, Initial residual = 0.4324276195, Final residual = 6.731045255e-07, No Iterations 2
DICPCG:  Solving for p, Initial residual = 0.003403391101, Final residual = 6.717154283e-07, No Iterations 40
diagonal:  Solving for rho, Initial residual = 0, Final residual = 0, No Iterations 0
time step continuity errors : sum local = 1.865255561e-09, global = 9.504988446e-11, cumulative = -2.554090711e-07
rho max/min : 1.158878074 1.158558608
ExecutionTime = 0.24 s  ClockTime = 0 s

Courant Number mean: 0.0006976378635 max: 0.01985088494
Time = 0.0003

PIMPLE: iteration 1
smoothSolver:  Solving for Ux, Initial residual = 0.07308933871, Final residual = 2.379046282e-05, No Iterations 1
smoothSolver:  Solving for Uy, Initial residual = 0.2517365879, Final residual = 6.442992029e-05, No Iterations 1
smoothSolver:  Solving for Uz, Initial residual = 0.2515584756, Final residual = 6.485051271e-05, No Iterations 1
smoothSolver:  Solving for e, Initial residual = 0.1788313897, Final residual = 8.052306412e-05, No Iterations 1
DICPCG:  Solving for p, Initial residual = 0.07734510325, Final residual = 0.000616856821, No Iterations 30
diagonal:  Solving for rho, Initial residual = 0, Final residual = 0, No Iterations 0
time step continuity errors : sum local = 1.86597995e-06, global = -1.434148669e-07, cumulative = -3.98823938e-07
rho max/min : 1.158944304 1.158423707
PIMPLE: iteration 2
smoothSolver:  Solving for Ux, Initial residual = 0.0001771115913, Final residual = 1.334749913e-07, No Iterations 1
smoothSolver:  Solving for Uy, Initial residual = 0.0005395233847, Final residual = 3.747316923e-07, No Iterations 1
smoothSolver:  Solving for Uz, Initial residual = 0.000539438388, Final residual = 3.793889561e-07, No Iterations 1
smoothSolver:  Solving for e, Initial residual = 0.0884917566, Final residual = 6.014496306e-05, No Iterations 1
DICPCG:  Solving for p, Initial residual = 0.01080051106, Final residual = 9.882058656e-05, No Iterations 29
diagonal:  Solving for rho, Initial residual = 0, Final residual = 0, No Iterations 0
time step continuity errors : sum local = 3.931283784e-07, global = 9.867872594e-09, cumulative = -3.889560654e-07
rho max/min : 1.158965719 1.158451337
PIMPLE: iteration 3
smoothSolver:  Solving for Ux, Initial residual = 2.496512058e-05, Final residual = 3.137775613e-08, No Iterations 1
smoothSolver:  Solving for Uy, Initial residual = 0.0001178784015, Final residual = 5.556542845e-08, No Iterations 1
smoothSolver:  Solving for Uz, Initial residual = 0.0001173191132, Final residual = 5.728355566e-08, No Iterations 1
smoothSolver:  Solving for e, Initial residual = 0.1451822041, Final residual = 3.770608561e-07, No Iterations 2
DICPCG:  Solving for p, Initial residual = 0.001714603247, Final residual = 6.640157643e-07, No Iterations 39
diagonal:  Solving for rho, Initial residual = 0, Final residual = 0, No Iterations 0
time step continuity errors : sum local = 2.549393228e-09, global = 1.722945243e-10, cumulative = -3.887837709e-07
rho max/min : 1.158945165 1.158514189
ExecutionTime = 0.28 s  ClockTime = 0 s

Courant Number mean: 0.001329710368 max: 0.03794813552
Time = 0.0004

PIMPLE: iteration 1
smoothSolver:  Solving for Ux, Initial residual = 0.05488505065, Final residual = 3.018252294e-05, No Iterations 1
smoothSolver:  Solving for Uy, Initial residual = 0.1947679968, Final residual = 6.423667904e-05, No Iterations 1
smoothSolver:  Solving for Uz, Initial residual = 0.1946504412, Final residual = 6.470670475e-05, No Iterations 1
smoothSolver:  Solving for e, Initial residual = 0.1014577923, Final residual = 6.252748684e-05, No Iterations 1
DICPCG:  Solving for p, Initial residual = 0.04987827073, Final residual = 0.0004127602939, No Iterations 30
diagonal:  Solving for rho, Initial residual = 0, Final residual = 0, No Iterations 0
time step continuity errors : sum local = 1.673195758e-06, global = -1.275289369e-07, cumulative = -5.163127078e-07
rho max/min : 1.159016989 1.158583144
PIMPLE: iteration 2
smoothSolver:  Solving for Ux, Initial residual = 0.0001325777707, Final residual = 1.477825241e-07, No Iterations 1
smoothSolver:  Solving for Uy, Initial residual = 0.0004993270455, Final residual = 6.692027577e-07, No Iterations 1
smoothSolver:  Solving for Uz, Initial residual = 0.0004992152975, Final residual = 6.734684116e-07, No Iterations 1
smoothSolver:  Solving for e, Initial residual = 0.06302070191, Final residual = 6.039102366e-05, No Iterations 1
DICPCG:  Solving for p, Initial residual = 0.009706085877, Final residual = 9.643171745e-05, No Iterations 29
diagonal:  Solving for rho, Initial residual = 0, Final residual = 0, No Iterations 0
time step continuity errors : sum local = 4.684875558e-07, global = 1.253359844e-08, cumulative = -5.037791094e-07
rho max/min : 1.159018339 1.158477865
PIMPLE: iteration 3
smoothSolver:  Solving for Ux, Initial residual = 2.140151966e-05, Final residual = 4.057470229e-08, No Iterations 1
smoothSolver:  Solving for Uy, Initial residual = 8.20474341e-05, Final residual = 7.063914767e-08, No Iterations 1
smoothSolver:  Solving for Uz, Initial residual = 8.176964597e-05, Final residual = 7.287201324e-08, No Iterations 1
smoothSolver:  Solving for e, Initial residual = 0.09371435546, Final residual = 4.267582106e-07, No Iterations 2
DICPCG:  Solving for p, Initial residual = 0.001250581353, Final residual = 7.285777593e-07, No Iterations 38
diagonal:  Solving for rho, Initial residual = 0, Final residual = 0, No Iterations 0
time step continuity errors : sum local = 3.428088549e-09, global = 7.563447533e-11, cumulative = -5.037034749e-07
rho max/min : 1.159001431 1.158473682
ExecutionTime = 0.31 s  ClockTime = 0 s

Courant Number mean: 0.002102335865 max: 0.06002104592
Time = 0.0005

PIMPLE: iteration 1
smoothSolver:  Solving for Ux, Initial residual = 0.04265868018, Final residual = 3.698510075e-05, No Iterations 1
smoothSolver:  Solving for Uy, Initial residual = 0.1573974223, Final residual = 6.792431642e-05, No Iterations 1
smoothSolver:  Solving for Uz, Initial residual = 0.1573423901, Final residual = 6.888900893e-05, No Iterations 1
smoothSolver:  Solving for e, Initial residual = 0.06937152066, Final residual = 5.937794711e-05, No Iterations 1
DICPCG:  Solving for p, Initial residual = 0.0341537014, Final residual = 0.0002814922587, No Iterations 30
diagonal:  Solving for rho, Initial residual = 0, Final residual = 0, No Iterations 0
time step continuity errors : sum local = 1.372142767e-06, global = -1.0457465e-07, cumulative = -6.082781249e-07
rho max/min : 1.159071996 1.158539163
PIMPLE: iteration 2
smoothSolver:  Solving for Ux, Initial residual = 0.0001130989887, Final residual = 1.584752386e-07, No Iterations 1
smoothSolver:  Solving for Uy, Initial residual = 0.0004882968479, Final residual = 1.081748651e-06, No Iterations 1
smoothSolver:  Solving for Uz, Initial residual = 0.0004884452348, Final residual = 1.088014882e-06, No Iterations 1
smoothSolver:  Solving for e, Initial residual = 0.04784183467, Final residual = 6.189093362e-05, No Iterations 1
DICPCG:  Solving for p, Initial residual = 0.009093970285, Final residual = 6.898910248e-05, No Iterations 30
diagonal:  Solving for rho, Initial residual = 0, Final residual = 0, No Iterations 0
time step continuity errors : sum local = 3.806142332e-07, global = 2.754909944e-08, cumulative = -5.807290254e-07
rho max/min : 1.159053724 1.158513295
PIMPLE: iteration 3
smoothSolver:  Solving for Ux, Initial residual = 2.082432255e-05, Final residual = 5.206198168e-08, No Iterations 1
smoothSolver:  Solving for Uy, Initial residual = 6.488383294e-05, Final residual = 9.405415671e-08, No Iterations 1
smoothSolver:  Solving for Uz, Initial residual = 6.474535177e-05, Final residual = 9.788025988e-08, No Iterations 1
smoothSolver:  Solving for e, Initial residual = 0.06605084772, Final residual = 4.516559278e-07, No Iterations 2
DICPCG:  Solving for p, Initial residual = 0.001098059019, Final residual = 8.543392902e-07, No Iterations 36
diagonal:  Solving for rho, Initial residual = 0, Final residual = 0, No Iterations 0
time step continuity errors : sum local = 4.573093675e-09, global = 3.635264854e-10, cumulative = -5.803654989e-07
rho max/min : 1.159054072 1.158408841
ExecutionTime = 0.34 s  ClockTime = 0 s

Courant Number mean: 0.002981428725 max: 0.08486338251
Time = 0.0006

PIMPLE: iteration 1
smoothSolver:  Solving for Ux, Initial residual = 0.03429876051, Final residual = 4.339290687e-05, No Iterations 1
smoothSolver:  Solving for Uy, Initial residual = 0.1303862661, Final residual = 7.310222268e-05, No Iterations 1
smoothSolver:  Solving for Uz, Initial residual = 0.1303565499, Final residual = 7.44043993e-05, No Iterations 1
smoothSolver:  Solving for e, Initial residual = 0.04978571612, Final residual = 6.746454976e-05, No Iterations 1
DICPCG:  Solving for p, Initial residual = 0.02312243601, Final residual = 0.0001961022732, No Iterations 30
diagonal:  Solving for rho, Initial residual = 0, Final residual = 0, No Iterations 0
time step continuity errors : sum local = 1.073679702e-06, global = -7.8684225e-08, cumulative = -6.590497239e-07
rho max/min : 1.159107877 1.158508032
PIMPLE: iteration 2
smoothSolver:  Solving for Ux, Initial residual = 0.0001018503833, Final residual = 1.639377575e-07, No Iterations 1
smoothSolver:  Solving for Uy, Initial residual = 0.000472628261, Final residual = 1.58188309e-06, No Iterations 1
smoothSolver:  Solving for Uz, Initial residual = 0.0004725525858, Final residual = 1.589180162e-06, No Iterations 1
smoothSolver:  Solving for e, Initial residual = 0.03818253474, Final residual = 8.694495325e-05, No Iterations 1
DICPCG:  Solving for p, Initial residual = 0.008704671318, Final residual = 6.999091712e-05, No Iterations 30
diagonal:  Solving for rho, Initial residual = 0, Final residual = 0, No Iterations 0
time step continuity errors : sum local = 4.15577799e-07, global = 2.879327134e-08, cumulative = -6.302564526e-07
rho max/min : 1.159087702 1.158379258
PIMPLE: iteration 3
smoothSolver:  Solving for Ux, Initial residual = 1.997949684e-05, Final residual = 6.168457686e-08, No Iterations 1
smoothSolver:  Solving for Uy, Initial residual = 5.257523924e-05, Final residual = 1.117873794e-07, No Iterations 1
smoothSolver:  Solving for Uz, Initial residual = 5.237202306e-05, Final residual = 1.144671557e-07, No Iterations 1
smoothSolver:  Solving for e, Initial residual = 0.04557367442, Final residual = 6.593060209e-07, No Iterations 2
DICPCG:  Solving for p, Initial residual = 0.0009403755548, Final residual = 8.677472415e-07, No Iterations 35
diagonal:  Solving for rho, Initial residual = 0, Final residual = 0, No Iterations 0
time step continuity errors : sum local = 5.006969548e-09, global = 4.304987856e-10, cumulative = -6.298259538e-07
rho max/min : 1.159104579 1.158434893
ExecutionTime = 0.37 s  ClockTime = 0 s

Courant Number mean: 0.003930254815 max: 0.1111016472
Time = 0.0007

PIMPLE: iteration 1
smoothSolver:  Solving for Ux, Initial residual = 0.02812234758, Final residual = 4.864805323e-05, No Iterations 1
smoothSolver:  Solving for Uy, Initial residual = 0.1095373238, Final residual = 7.725861768e-05, No Iterations 1
smoothSolver:  Solving for Uz, Initial residual = 0.1095196313, Final residual = 7.866938285e-05, No Iterations 1
smoothSolver:  Solving for e, Initial residual = 0.03548827326, Final residual = 6.086263688e-05, No Iterations 1
DICPCG:  Solving for p, Initial residual = 0.01451942582, Final residual = 0.0001203734114, No Iterations 30
diagonal:  Solving for rho, Initial residual = 0, Final residual = 0, No Iterations 0
time step continuity errors : sum local = 7.031504412e-07, global = -5.101100908e-08, cumulative = -6.808369629e-07
rho max/min : 1.159123999 1.158411332
PIMPLE: iteration 2
smoothSolver:  Solving for Ux, Initial residual = 9.364747722e-05, Final residual = 1.856260497e-07, No Iterations 1
smoothSolver:  Solving for Uy, Initial residual = 0.0004449084696, Final residual = 2.063633357e-06, No Iterations 1
smoothSolver:  Solving for Uz, Initial residual = 0.0004451123092, Final residual = 2.07733485e-06, No Iterations 1
smoothSolver:  Solving for e, Initial residual = 0.03126393631, Final residual = 8.218818758e-05, No Iterations 1
DICPCG:  Solving for p, Initial residual = 0.008414465237, Final residual = 6.79658003e-05, No Iterations 30
diagonal:  Solving for rho, Initial residual = 0, Final residual = 0, No Iterations 0
time step continuity errors : sum local = 4.155786412e-07, global = 2.859810928e-08, cumulative = -6.522388536e-07
rho max/min : 1.159102685 1.158473096
PIMPLE: iteration 3
smoothSolver:  Solving for Ux, Initial residual = 2.169384256e-05, Final residual = 6.838191471e-08, No Iterations 1
smoothSolver:  Solving for Uy, Initial residual = 4.430500787e-05, Final residual = 1.264566165e-07, No Iterations 1
smoothSolver:  Solving for Uz, Initial residual = 4.433339556e-05, Final residual = 1.31316992e-07, No Iterations 1
smoothSolver:  Solving for e, Initial residual = 0.02987831606, Final residual = 8.709463496e-07, No Iterations 2
DICPCG:  Solving for p, Initial residual = 0.0008475841419, Final residual = 8.994539766e-07, No Iterations 33
diagonal:  Solving for rho, Initial residual = 0, Final residual = 0, No Iterations 0
time step continuity errors : sum local = 5.340613686e-09, global = -8.494617393e-11, cumulative = -6.523237998e-07
rho max/min : 1.159154121 1.158408816
ExecutionTime = 0.4 s  ClockTime = 0 s

Courant Number mean: 0.004909796702 max: 0.1374959054
Time = 0.0008

PIMPLE: iteration 1
smoothSolver:  Solving for Ux, Initial residual = 0.02327581224, Final residual = 5.18824088e-05, No Iterations 1
smoothSolver:  Solving for Uy, Initial residual = 0.09234142205, Final residual = 7.894905178e-05, No Iterations 1
smoothSolver:  Solving for Uz, Initial residual = 0.09233680927, Final residual = 8.049958746e-05, No Iterations 1
smoothSolver:  Solving for e, Initial residual = 0.02402044631, Final residual = 6.328395779e-05, No Iterations 1
DICPCG:  Solving for p, Initial residual = 0.007204591551, Final residual = 5.444611009e-05, No Iterations 30
diagonal:  Solving for rho, Initial residual = 0, Final residual = 0, No Iterations 0
time step continuity errors : sum local = 3.256258269e-07, global = -2.230589053e-08, cumulative = -6.746296903e-07
rho max/min : 1.159120534 1.15845442
PIMPLE: iteration 2
smoothSolver:  Solving for Ux, Initial residual = 8.62919402e-05, Final residual = 2.133295903e-07, No Iterations 1
smoothSolver:  Solving for Uy, Initial residual = 0.0004023724366, Final residual = 2.471058937e-06, No Iterations 1
smoothSolver:  Solving for Uz, Initial residual = 0.0004025329821, Final residual = 2.482410623e-06, No Iterations 1
smoothSolver:  Solving for e, Initial residual = 0.02486702673, Final residual = 8.091118205e-05, No Iterations 1
DICPCG:  Solving for p, Initial residual = 0.008164810794, Final residual = 6.624347656e-05, No Iterations 30
diagonal:  Solving for rho, Initial residual = 0, Final residual = 0, No Iterations 0
time step continuity errors : sum local = 4.009795693e-07, global = 2.74322788e-08, cumulative = -6.471974115e-07
rho max/min : 1.159141816 1.158395414
PIMPLE: iteration 3
smoothSolver:  Solving for Ux, Initial residual = 2.190538386e-05, Final residual = 7.34296458e-08, No Iterations 1
smoothSolver:  Solving for Uy, Initial residual = 3.820677334e-05, Final residual = 1.33942497e-07, No Iterations 1
smoothSolver:  Solving for Uz, Initial residual = 3.824138356e-05, Final residual = 1.340341257e-07, No Iterations 1
smoothSolver:  Solving for e, Initial residual = 0.01654452805, Final residual = 6.552833995e-07, No Iterations 2
DICPCG:  Solving for p, Initial residual = 0.0007857684322, Final residual = 7.91635861e-07, No Iterations 27
diagonal:  Solving for rho, Initial residual = 0, Final residual = 0, No Iterations 0
time step continuity errors : sum local = 4.655462131e-09, global = -1.290664466e-09, cumulative = -6.48488076e-07
rho max/min : 1.159173358 1.158419004
ExecutionTime = 0.43 s  ClockTime = 0 s

Courant Number mean: 0.005881497918 max: 0.1627804908
Time = 0.0009

PIMPLE: iteration 1
smoothSolver:  Solving for Ux, Initial residual = 0.0192984781, Final residual = 5.381622651e-05, No Iterations 1
smoothSolver:  Solving for Uy, Initial residual = 0.07777858995, Final residual = 7.799062834e-05, No Iterations 1
smoothSolver:  Solving for Uz, Initial residual = 0.07777265673, Final residual = 7.959782366e-05, No Iterations 1
smoothSolver:  Solving for e, Initial residual = 0.01707437194, Final residual = 5.584687033e-05, No Iterations 1
DICPCG:  Solving for p, Initial residual = 0.001721700166, Final residual = 1.285931288e-05, No Iterations 30
diagonal:  Solving for rho, Initial residual = 0, Final residual = 0, No Iterations 0
time step continuity errors : sum local = 7.588565137e-08, global = 4.765563136e-09, cumulative = -6.437225128e-07
rho max/min : 1.159135871 1.158417146
PIMPLE: iteration 2
smoothSolver:  Solving for Ux, Initial residual = 7.671115353e-05, Final residual = 2.374588054e-07, No Iterations 1
smoothSolver:  Solving for Uy, Initial residual = 0.0003497974162, Final residual = 2.77265673e-06, No Iterations 1
smoothSolver:  Solving for Uz, Initial residual = 0.0003500312894, Final residual = 2.78668849e-06, No Iterations 1
smoothSolver:  Solving for e, Initial residual = 0.0239915655, Final residual = 7.687843044e-05, No Iterations 1
DICPCG:  Solving for p, Initial residual = 0.008213441738, Final residual = 6.465251304e-05, No Iterations 30
diagonal:  Solving for rho, Initial residual = 0, Final residual = 0, No Iterations 0
time step continuity errors : sum local = 3.729209163e-07, global = 2.521140843e-08, cumulative = -6.185111044e-07
rho max/min : 1.159151485 1.158413376
PIMPLE: iteration 3
smoothSolver:  Solving for Ux, Initial residual = 2.05760179e-05, Final residual = 7.550566646e-08, No Iterations 1
smoothSolver:  Solving for Uy, Initial residual = 3.400584441e-05, Final residual = 1.597756086e-07, No Iterations 1
smoothSolver:  Solving for Uz, Initial residual = 3.417283336e-05, Final residual = 1.610139518e-07, No Iterations 1
smoothSolver:  Solving for e, Initial residual = 0.009785827761, Final residual = 5.335686822e-07, No Iterations 2
DICPCG:  Solving for p, Initial residual = 0.0008379078509, Final residual = 7.405341292e-07, No Iterations 33
diagonal:  Solving for rho, Initial residual = 0, Final residual = 0, No Iterations 0
time step continuity errors : sum local = 4.152248601e-09, global = -2.519519533e-11, cumulative = -6.185362996e-07
rho max/min : 1.159174348 1.158399777
ExecutionTime = 0.47 s  ClockTime = 0 s

Courant Number mean: 0.006809025585 max: 0.1858562911
Time = 0.001

PIMPLE: iteration 1
smoothSolver:  Solving for Ux, Initial residual = 0.0159252731, Final residual = 5.384773809e-05, No Iterations 1
smoothSolver:  Solving for Uy, Initial residual = 0.06512407406, Final residual = 7.403216427e-05, No Iterations 1
smoothSolver:  Solving for Uz, Initial residual = 0.06512752489, Final residual = 7.560806375e-05, No Iterations 1
smoothSolver:  Solving for e, Initial residual = 0.01985382308, Final residual = 6.345784786e-05, No Iterations 1
DICPCG:  Solving for p, Initial residual = 0.008525867769, Final residual = 7.586029247e-05, No Iterations 30
diagonal:  Solving for rho, Initial residual = 0, Final residual = 0, No Iterations 0
time step continuity errors : sum local = 4.239567892e-07, global = 3.176914825e-08, cumulative = -5.867671514e-07
rho max/min : 1.159139174 1.158430466
PIMPLE: iteration 2
smoothSolver:  Solving for Ux, Initial residual = 7.104796359e-05, Final residual = 2.717028523e-07, No Iterations 1
smoothSolver:  Solving for Uy, Initial residual = 0.0002905179261, Final residual = 1.071142256e-07, No Iterations 2
smoothSolver:  Solving for Uz, Initial residual = 0.0002905777925, Final residual = 1.07410384e-07, No Iterations 2
smoothSolver:  Solving for e, Initial residual = 0.03248925177, Final residual = 0.000119087415, No Iterations 1
DICPCG:  Solving for p, Initial residual = 0.008718568229, Final residual = 6.539411712e-05, No Iterations 30
diagonal:  Solving for rho, Initial residual = 0, Final residual = 0, No Iterations 0
time step continuity errors : sum local = 3.454556185e-07, global = 2.143576863e-08, cumulative = -5.653313827e-07
rho max/min : 1.159163555 1.158374751
PIMPLE: iteration 3
smoothSolver:  Solving for Ux, Initial residual = 2.001891357e-05, Final residual = 7.409779553e-08, No Iterations 1
smoothSolver:  Solving for Uy, Initial residual = 3.016150295e-05, Final residual = 1.377220511e-07, No Iterations 1
smoothSolver:  Solving for Uz, Initial residual = 3.022941988e-05, Final residual = 1.340616827e-07, No Iterations 1
smoothSolver:  Solving for e, Initial residual = 0.01863237082, Final residual = 8.97674228e-07, No Iterations 2
DICPCG:  Solving for p, Initial residual = 0.001046425558, Final residual = 7.295904181e-07, No Iterations 33
diagonal:  Solving for rho, Initial residual = 0, Final residual = 0, No Iterations 0
time step continuity errors : sum local = 3.75048888e-09, global = -2.03631434e-10, cumulative = -5.655350142e-07
rho max/min : 1.159148355 1.158408362
ExecutionTime = 0.5 s  ClockTime = 0 s

Courant Number mean: 0.007659414349 max: 0.2058796875
Time = 0.0011

PIMPLE: iteration 1
smoothSolver:  Solving for Ux, Initial residual = 0.01299035313, Final residual = 5.135297967e-05, No Iterations 1
smoothSolver:  Solving for Uy, Initial residual = 0.05386474783, Final residual = 6.734693021e-05, No Iterations 1
smoothSolver:  Solving for Uz, Initial residual = 0.05386692229, Final residual = 6.878829333e-05, No Iterations 1
smoothSolver:  Solving for e, Initial residual = 0.02963824259, Final residual = 7.926547556e-05, No Iterations 1
DICPCG:  Solving for p, Initial residual = 0.01628213591, Final residual = 0.000145463119, No Iterations 30
diagonal:  Solving for rho, Initial residual = 0, Final residual = 0, No Iterations 0
time step continuity errors : sum local = 7.393797816e-07, global = 5.572382067e-08, cumulative = -5.098111935e-07
rho max/min : 1.159127857 1.158405166
PIMPLE: iteration 2
smoothSolver:  Solving for Ux, Initial residual = 6.271329163e-05, Final residual = 3.020986233e-07, No Iterations 1
smoothSolver:  Solving for Uy, Initial residual = 0.0002291683808, Final residual = 1.150620682e-07, No Iterations 2
smoothSolver:  Solving for Uz, Initial residual = 0.0002292001002, Final residual = 1.152408862e-07, No Iterations 2
smoothSolver:  Solving for e, Initial residual = 0.04954169628, Final residual = 0.0001740128132, No Iterations 1
DICPCG:  Solving for p, Initial residual = 0.00940198951, Final residual = 8.76550704e-05, No Iterations 29
diagonal:  Solving for rho, Initial residual = 0, Final residual = 0, No Iterations 0
time step continuity errors : sum local = 4.054974254e-07, global = -3.449189448e-09, cumulative = -5.132603829e-07
rho max/min : 1.15912871 1.158375085
PIMPLE: iteration 3
smoothSolver:  Solving for Ux, Initial residual = 1.831004218e-05, Final residual = 6.624286819e-08, No Iterations 1
smoothSolver:  Solving for Uy, Initial residual = 2.847278114e-05, Final residual = 1.299464322e-07, No Iterations 1
smoothSolver:  Solving for Uz, Initial residual = 2.846288207e-05, Final residual = 1.285785909e-07, No Iterations 1
smoothSolver:  Solving for e, Initial residual = 0.03821712302, Final residual = 1.196425523e-07, No Iterations 3
DICPCG:  Solving for p, Initial residual = 0.001448099751, Final residual = 9.479463391e-07, No Iterations 33
diagonal:  Solving for rho, Initial residual = 0, Final residual = 0, No Iterations 0
time step continuity errors : sum local = 4.271076926e-09, global = -2.244746754e-10, cumulative = -5.134848576e-07
rho max/min : 1.159069836 1.158419306
ExecutionTime = 0.54 s  ClockTime = 0 s

Courant Number mean: 0.008404342515 max: 0.2221852549
Time = 0.0012

PIMPLE: iteration 1
smoothSolver:  Solving for Ux, Initial residual = 0.01037562509, Final residual = 4.638168499e-05, No Iterations 1
smoothSolver:  Solving for Uy, Initial residual = 0.04366075746, Final residual = 5.809420897e-05, No Iterations 1
smoothSolver:  Solving for Uz, Initial residual = 0.04366787203, Final residual = 5.934809744e-05, No Iterations 1
smoothSolver:  Solving for e, Initial residual = 0.04816728434, Final residual = 0.0001736710829, No Iterations 1
DICPCG:  Solving for p, Initial residual = 0.0255997469, Final residual = 0.000233614875, No Iterations 30
diagonal:  Solving for rho, Initial residual = 0, Final residual = 0, No Iterations 0
time step continuity errors : sum local = 1.030915085e-06, global = 7.687496869e-08, cumulative = -4.366098889e-07
rho max/min : 1.1591024 1.158399065
PIMPLE: iteration 2
smoothSolver:  Solving for Ux, Initial residual = 5.249886386e-05, Final residual = 3.285371098e-07, No Iterations 1
smoothSolver:  Solving for Uy, Initial residual = 0.0001755496833, Final residual = 1.117017698e-07, No Iterations 2
smoothSolver:  Solving for Uz, Initial residual = 0.0001756544865, Final residual = 1.118873466e-07, No Iterations 2
smoothSolver:  Solving for e, Initial residual = 0.07569223056, Final residual = 0.0003220334536, No Iterations 1
DICPCG:  Solving for p, Initial residual = 0.01029400632, Final residual = 8.489801275e-05, No Iterations 29
diagonal:  Solving for rho, Initial residual = 0, Final residual = 0, No Iterations 0
time step continuity errors : sum local = 3.25149802e-07, global = -5.185257558e-09, cumulative = -4.417951465e-07
rho max/min : 1.159036432 1.158381254
PIMPLE: iteration 3
smoothSolver:  Solving for Ux, Initial residual = 1.623683957e-05, Final residual = 5.973438347e-08, No Iterations 1
smoothSolver:  Solving for Uy, Initial residual = 2.713735973e-05, Final residual = 1.354217214e-07, No Iterations 1
smoothSolver:  Solving for Uz, Initial residual = 2.738176143e-05, Final residual = 1.425286371e-07, No Iterations 1
smoothSolver:  Solving for e, Initial residual = 0.05112478348, Final residual = 2.703240026e-07, No Iterations 3
DICPCG:  Solving for p, Initial residual = 0.001858333629, Final residual = 8.52826734e-07, No Iterations 36
diagonal:  Solving for rho, Initial residual = 0, Final residual = 0, No Iterations 0
time step continuity errors : sum local = 3.188888003e-09, global = 7.914989577e-11, cumulative = -4.417159966e-07
rho max/min : 1.158992774 1.158431533
ExecutionTime = 0.57 s  ClockTime = 0 s

Courant Number mean: 0.009020451047 max: 0.2343031553
Time = 0.0013

PIMPLE: iteration 1
smoothSolver:  Solving for Ux, Initial residual = 0.008012235704, Final residual = 3.930440487e-05, No Iterations 1
smoothSolver:  Solving for Uy, Initial residual = 0.03411929507, Final residual = 4.659580773e-05, No Iterations 1
smoothSolver:  Solving for Uz, Initial residual = 0.03412585037, Final residual = 4.760026156e-05, No Iterations 1
smoothSolver:  Solving for e, Initial residual = 0.06585873987, Final residual = 0.0002145758644, No Iterations 1
DICPCG:  Solving for p, Initial residual = 0.03814874881, Final residual = 0.0003428485832, No Iterations 30
diagonal:  Solving for rho, Initial residual = 0, Final residual = 0, No Iterations 0
time step continuity errors : sum local = 1.238860771e-06, global = 9.325554394e-08, cumulative = -3.484604527e-07
rho max/min : 1.159013252 1.158414233
PIMPLE: iteration 2
smoothSolver:  Solving for Ux, Initial residual = 4.192496996e-05, Final residual = 3.650808551e-07, No Iterations 1
smoothSolver:  Solving for Uy, Initial residual = 0.0001270105828, Final residual = 9.451831652e-08, No Iterations 2
smoothSolver:  Solving for Uz, Initial residual = 0.000127097143, Final residual = 9.408601025e-08, No Iterations 2
smoothSolver:  Solving for e, Initial residual = 0.1264650919, Final residual = 0.0004893280096, No Iterations 1
DICPCG:  Solving for p, Initial residual = 0.01165270314, Final residual = 0.0001048625269, No Iterations 28
diagonal:  Solving for rho, Initial residual = 0, Final residual = 0, No Iterations 0
time step continuity errors : sum local = 3.083255863e-07, global = -4.929211341e-08, cumulative = -3.977525661e-07
rho max/min : 1.158962789 1.158384325
PIMPLE: iteration 3
smoothSolver:  Solving for Ux, Initial residual = 1.276898158e-05, Final residual = 4.96350906e-08, No Iterations 1
smoothSolver:  Solving for Uy, Initial residual = 2.762891906e-05, Final residual = 1.765031283e-07, No Iterations 1
smoothSolver:  Solving for Uz, Initial residual = 2.765435492e-05, Final residual = 1.812492953e-07, No Iterations 1
smoothSolver:  Solving for e, Initial residual = 0.07897041309, Final residual = 3.511977314e-07, No Iterations 3
DICPCG:  Solving for p, Initial residual = 0.002584202201, Final residual = 7.829465637e-07, No Iterations 39
diagonal:  Solving for rho, Initial residual = 0, Final residual = 0, No Iterations 0
time step continuity errors : sum local = 2.249173636e-09, global = -5.823978073e-11, cumulative = -3.978108058e-07
rho max/min : 1.158942564 1.158457672
ExecutionTime = 0.61 s  ClockTime = 0 s

Courant Number mean: 0.009491109556 max: 0.2419162381
Time = 0.0014

PIMPLE: iteration 1
smoothSolver:  Solving for Ux, Initial residual = 0.005826001283, Final residual = 3.057996274e-05, No Iterations 1
smoothSolver:  Solving for Uy, Initial residual = 0.02533955637, Final residual = 3.358507587e-05, No Iterations 1
smoothSolver:  Solving for Uz, Initial residual = 0.02534468422, Final residual = 3.427338713e-05, No Iterations 1
smoothSolver:  Solving for e, Initial residual = 0.1002849444, Final residual = 0.0003872259709, No Iterations 1
DICPCG:  Solving for p, Initial residual = 0.05762272224, Final residual = 0.0005182693891, No Iterations 30
diagonal:  Solving for rho, Initial residual = 0, Final residual = 0, No Iterations 0
time step continuity errors : sum local = 1.410259843e-06, global = 1.060327816e-07, cumulative = -2.917780242e-07
rho max/min : 1.158928114 1.158420223
PIMPLE: iteration 2
smoothSolver:  Solving for Ux, Initial residual = 3.521543029e-05, Final residual = 3.918237989e-07, No Iterations 1
smoothSolver:  Solving for Uy, Initial residual = 9.246334293e-05, Final residual = 6.663588691e-08, No Iterations 2
smoothSolver:  Solving for Uz, Initial residual = 9.258079155e-05, Final residual = 6.673363177e-08, No Iterations 2
smoothSolver:  Solving for e, Initial residual = 0.2070803895, Final residual = 0.001015970384, No Iterations 1
DICPCG:  Solving for p, Initial residual = 0.0139868283, Final residual = 0.0001173544165, No Iterations 21
diagonal:  Solving for rho, Initial residual = 0, Final residual = 0, No Iterations 0
time step continuity errors : sum local = 2.324872338e-07, global = -7.536385192e-08, cumulative = -3.671418761e-07
rho max/min : 1.158940468 1.158400543
PIMPLE: iteration 3
smoothSolver:  Solving for Ux, Initial residual = 9.635625231e-06, Final residual = 4.916638179e-08, No Iterations 1
smoothSolver:  Solving for Uy, Initial residual = 2.854090287e-05, Final residual = 2.212031899e-07, No Iterations 1
smoothSolver:  Solving for Uz, Initial residual = 2.856207338e-05, Final residual = 2.184807243e-07, No Iterations 1
smoothSolver:  Solving for e, Initial residual = 0.1181238472, Final residual = 4.459935253e-07, No Iterations 3
DICPCG:  Solving for p, Initial residual = 0.003804036329, Final residual = 7.69688197e-07, No Iterations 40
diagonal:  Solving for rho, Initial residual = 0, Final residual = 0, No Iterations 0
time step continuity errors : sum local = 1.499248492e-09, global = -6.158374698e-12, cumulative = -3.671480345e-07
rho max/min : 1.158887386 1.158482984
ExecutionTime = 0.64 s  ClockTime = 0 s

Courant Number mean: 0.009804357852 max: 0.2448713228
Time = 0.0015

PIMPLE: iteration 1
smoothSolver:  Solving for Ux, Initial residual = 0.003799141501, Final residual = 2.062565596e-05, No Iterations 1
smoothSolver:  Solving for Uy, Initial residual = 0.01697988172, Final residual = 1.987942895e-05, No Iterations 1
smoothSolver:  Solving for Uz, Initial residual = 0.01700067111, Final residual = 2.027410042e-05, No Iterations 1
smoothSolver:  Solving for e, Initial residual = 0.1612690343, Final residual = 0.0005150606671, No Iterations 1
DICPCG:  Solving for p, Initial residual = 0.09547372925, Final residual = 0.0008576642865, No Iterations 30
diagonal:  Solving for rho, Initial residual = 0, Final residual = 0, No Iterations 0
time step continuity errors : sum local = 1.520621545e-06, global = 1.131446642e-07, cumulative = -2.540033703e-07
rho max/min : 1.158887758 1.158446474
PIMPLE: iteration 2
smoothSolver:  Solving for Ux, Initial residual = 3.209743552e-05, Final residual = 4.237678254e-07, No Iterations 1
smoothSolver:  Solving for Uy, Initial residual = 7.980102777e-05, Final residual = 9.885305581e-07, No Iterations 1
smoothSolver:  Solving for Uz, Initial residual = 7.988132401e-05, Final residual = 9.891138819e-07, No Iterations 1
smoothSolver:  Solving for e, Initial residual = 0.193407494, Final residual = 0.0007511040114, No Iterations 1
DICPCG:  Solving for p, Initial residual = 0.02005280953, Final residual = 0.0001823423819, No Iterations 20
diagonal:  Solving for rho, Initial residual = 0, Final residual = 0, No Iterations 0
time step continuity errors : sum local = 1.820083799e-07, global = 1.901011267e-08, cumulative = -2.349932577e-07
rho max/min : 1.158844587 1.158428378
PIMPLE: iteration 3
smoothSolver:  Solving for Ux, Initial residual = 7.799073064e-06, Final residual = 5.12103945e-08, No Iterations 1
smoothSolver:  Solving for Uy, Initial residual = 2.917773982e-05, Final residual = 2.620908079e-07, No Iterations 1
smoothSolver:  Solving for Uz, Initial residual = 2.889144048e-05, Final residual = 2.631193482e-07, No Iterations 1
smoothSolver:  Solving for e, Initial residual = 0.1881083839, Final residual = 9.680675261e-07, No Iterations 3
DICPCG:  Solving for p, Initial residual = 0.007138764172, Final residual = 7.954231215e-07, No Iterations 41
diagonal:  Solving for rho, Initial residual = 0, Final residual = 0, No Iterations 0
time step continuity errors : sum local = 7.892505441e-10, global = -9.98703918e-12, cumulative = -2.350032447e-07
rho max/min : 1.158817167 1.158434473
ExecutionTime = 0.67 s  ClockTime = 0 s

Courant Number mean: 0.009959276294 max: 0.2433880988
Time = 0.0016

PIMPLE: iteration 1
smoothSolver:  Solving for Ux, Initial residual = 0.001929611635, Final residual = 1.019351174e-05, No Iterations 1
smoothSolver:  Solving for Uy, Initial residual = 0.01009806608, Final residual = 1.04140088e-05, No Iterations 1
smoothSolver:  Solving for Uz, Initial residual = 0.01011449542, Final residual = 1.049451304e-05, No Iterations 1
smoothSolver:  Solving for e, Initial residual = 0.2489117525, Final residual = 0.001021831658, No Iterations 1
DICPCG:  Solving for p, Initial residual = 0.1970239128, Final residual = 0.001760969415, No Iterations 30
diagonal:  Solving for rho, Initial residual = 0, Final residual = 0, No Iterations 0
time step continuity errors : sum local = 1.55457412e-06, global = 1.17859628e-07, cumulative = -1.171436167e-07
rho max/min : 1.158833643 1.158471369
PIMPLE: iteration 2
smoothSolver:  Solving for Ux, Initial residual = 3.072438431e-05, Final residual = 4.256144441e-07, No Iterations 1
smoothSolver:  Solving for Uy, Initial residual = 0.0001171402539, Final residual = 1.02922469e-06, No Iterations 1
smoothSolver:  Solving for Uz, Initial residual = 0.000117186252, Final residual = 1.035077916e-06, No Iterations 1
smoothSolver:  Solving for e, Initial residual = 0.1315269295, Final residual = 0.0005536789649, No Iterations 1
DICPCG:  Solving for p, Initial residual = 0.06119757985, Final residual = 0.0004374921914, No Iterations 27
diagonal:  Solving for rho, Initial residual = 0, Final residual = 0, No Iterations 0
time step continuity errors : sum local = 9.31123966e-08, global = 2.904661912e-09, cumulative = -1.142389548e-07
rho max/min : 1.158802764 1.158428821
PIMPLE: iteration 3
smoothSolver:  Solving for Ux, Initial residual = 7.244517268e-06, Final residual = 5.758769186e-08, No Iterations 1
smoothSolver:  Solving for Uy, Initial residual = 3.3857397e-05, Final residual = 3.162882231e-07, No Iterations 1
smoothSolver:  Solving for Uz, Initial residual = 3.391545058e-05, Final residual = 3.193306338e-07, No Iterations 1
smoothSolver:  Solving for e, Initial residual = 0.2804930538, Final residual = 8.731735653e-07, No Iterations 3
DICPCG:  Solving for p, Initial residual = 0.04081088858, Final residual = 7.08144831e-07, No Iterations 46
diagonal:  Solving for rho, Initial residual = 0, Final residual = 0, No Iterations 0
time step continuity errors : sum local = 1.218653954e-10, global = -3.088729581e-12, cumulative = -1.142420435e-07
rho max/min : 1.158763125 1.158403749
ExecutionTime = 0.71 s  ClockTime = 0 s

Courant Number mean: 0.009953740631 max: 0.2376242091
Time = 0.0017

PIMPLE: iteration 1
smoothSolver:  Solving for Ux, Initial residual = 0.0004323612054, Final residual = 2.302061106e-06, No Iterations 1
smoothSolver:  Solving for Uy, Initial residual = 0.004902746225, Final residual = 1.501536894e-05, No Iterations 1
smoothSolver:  Solving for Uz, Initial residual = 0.004905477343, Final residual = 1.538759879e-05, No Iterations 1
smoothSolver:  Solving for e, Initial residual = 0.232245235, Final residual = 0.0007794397484, No Iterations 1
DICPCG:  Solving for p, Initial residual = 0.5002826774, Final residual = 0.004550237314, No Iterations 30
diagonal:  Solving for rho, Initial residual = 0, Final residual = 0, No Iterations 0
time step continuity errors : sum local = 1.578900532e-06, global = 1.165145411e-07, cumulative = 2.272497606e-09
rho max/min : 1.158756687 1.158455167
PIMPLE: iteration 2
smoothSolver:  Solving for Ux, Initial residual = 3.942528667e-05, Final residual = 4.173432726e-07, No Iterations 1
smoothSolver:  Solving for Uy, Initial residual = 0.0001551453328, Final residual = 1.386600551e-06, No Iterations 1
smoothSolver:  Solving for Uz, Initial residual = 0.0001549126281, Final residual = 1.390258971e-06, No Iterations 1
smoothSolver:  Solving for e, Initial residual = 0.1001357301, Final residual = 0.0003451891414, No Iterations 1
DICPCG:  Solving for p, Initial residual = 0.01746227277, Final residual = 0.0001448547867, No Iterations 28
diagonal:  Solving for rho, Initial residual = 0, Final residual = 0, No Iterations 0
time step continuity errors : sum local = 1.610142405e-07, global = 6.660496345e-09, cumulative = 8.932993951e-09
rho max/min : 1.158753976 1.158433089
PIMPLE: iteration 3
smoothSolver:  Solving for Ux, Initial residual = 5.855274e-06, Final residual = 5.908225658e-08, No Iterations 1
smoothSolver:  Solving for Uy, Initial residual = 3.311507514e-05, Final residual = 3.280966507e-07, No Iterations 1
smoothSolver:  Solving for Uz, Initial residual = 3.317850701e-05, Final residual = 3.31817817e-07, No Iterations 1
smoothSolver:  Solving for e, Initial residual = 0.2519007712, Final residual = 7.197611389e-07, No Iterations 3
DICPCG:  Solving for p, Initial residual = 0.006038965666, Final residual = 9.92620814e-07, No Iterations 40
diagonal:  Solving for rho, Initial residual = 0, Final residual = 0, No Iterations 0
time step continuity errors : sum local = 1.039049692e-09, global = -6.442870368e-12, cumulative = 8.92655108e-09
rho max/min : 1.158785314 1.158390994
ExecutionTime = 0.75 s  ClockTime = 0 s

Courant Number mean: 0.009795837158 max: 0.2279967954
Time = 0.0018

PIMPLE: iteration 1
smoothSolver:  Solving for Ux, Initial residual = 0.00192730814, Final residual = 1.063417615e-05, No Iterations 1
smoothSolver:  Solving for Uy, Initial residual = 0.008310496108, Final residual = 2.542687961e-05, No Iterations 1
smoothSolver:  Solving for Uz, Initial residual = 0.008304862336, Final residual = 2.606690944e-05, No Iterations 1
smoothSolver:  Solving for e, Initial residual = 0.149184969, Final residual = 0.0005193960831, No Iterations 1
DICPCG:  Solving for p, Initial residual = 0.1370823264, Final residual = 0.00120891591, No Iterations 30
diagonal:  Solving for rho, Initial residual = 0, Final residual = 0, No Iterations 0
time step continuity errors : sum local = 1.468031409e-06, global = 1.107891029e-07, cumulative = 1.19715654e-07
rho max/min : 1.15873198 1.158430168
PIMPLE: iteration 2
smoothSolver:  Solving for Ux, Initial residual = 5.033920031e-05, Final residual = 3.880824563e-07, No Iterations 1
smoothSolver:  Solving for Uy, Initial residual = 0.0001912661858, Final residual = 1.702859329e-06, No Iterations 1
smoothSolver:  Solving for Uz, Initial residual = 0.0001913303727, Final residual = 1.705226952e-06, No Iterations 1
smoothSolver:  Solving for e, Initial residual = 0.08098224681, Final residual = 0.0002768404652, No Iterations 1
DICPCG:  Solving for p, Initial residual = 0.01344946992, Final residual = 0.0001057308958, No Iterations 29
diagonal:  Solving for rho, Initial residual = 0, Final residual = 0, No Iterations 0
time step continuity errors : sum local = 2.063035426e-07, global = -3.681941402e-09, cumulative = 1.160337126e-07
rho max/min : 1.158755689 1.158444373
PIMPLE: iteration 3
smoothSolver:  Solving for Ux, Initial residual = 6.318285277e-06, Final residual = 6.588118851e-08, No Iterations 1
smoothSolver:  Solving for Uy, Initial residual = 3.54614461e-05, Final residual = 3.47073413e-07, No Iterations 1
smoothSolver:  Solving for Uz, Initial residual = 3.552853432e-05, Final residual = 3.530595396e-07, No Iterations 1
smoothSolver:  Solving for e, Initial residual = 0.1514705794, Final residual = 2.53622073e-07, No Iterations 3
DICPCG:  Solving for p, Initial residual = 0.003088320897, Final residual = 8.368105598e-07, No Iterations 39
diagonal:  Solving for rho, Initial residual = 0, Final residual = 0, No Iterations 0
time step continuity errors : sum local = 1.559259226e-09, global = -4.302174179e-11, cumulative = 1.159906909e-07
rho max/min : 1.15877002 1.158394487
ExecutionTime = 0.77 s  ClockTime = 0 s

Courant Number mean: 0.009499720709 max: 0.2149544137
Time = 0.0019

PIMPLE: iteration 1
smoothSolver:  Solving for Ux, Initial residual = 0.00364693564, Final residual = 1.952986685e-05, No Iterations 1
smoothSolver:  Solving for Uy, Initial residual = 0.01541915516, Final residual = 3.769571092e-05, No Iterations 1
smoothSolver:  Solving for Uz, Initial residual = 0.01540252807, Final residual = 3.856050639e-05, No Iterations 1
smoothSolver:  Solving for e, Initial residual = 0.1010693646, Final residual = 0.000322721583, No Iterations 1
DICPCG:  Solving for p, Initial residual = 0.07655766521, Final residual = 0.0006728624012, No Iterations 30
diagonal:  Solving for rho, Initial residual = 0, Final residual = 0, No Iterations 0
time step continuity errors : sum local = 1.359460403e-06, global = 1.016677693e-07, cumulative = 2.176584602e-07
rho max/min : 1.158744114 1.158406418
PIMPLE: iteration 2
smoothSolver:  Solving for Ux, Initial residual = 5.922972736e-05, Final residual = 3.427138208e-07, No Iterations 1
smoothSolver:  Solving for Uy, Initial residual = 0.000218425918, Final residual = 1.919444467e-06, No Iterations 1
smoothSolver:  Solving for Uz, Initial residual = 0.0002183884909, Final residual = 1.925083723e-06, No Iterations 1
smoothSolver:  Solving for e, Initial residual = 0.0642174741, Final residual = 0.0002186113071, No Iterations 1
DICPCG:  Solving for p, Initial residual = 0.01168784, Final residual = 0.0001028878774, No Iterations 29
diagonal:  Solving for rho, Initial residual = 0, Final residual = 0, No Iterations 0
time step continuity errors : sum local = 2.767126302e-07, global = -4.215201606e-09, cumulative = 2.134432586e-07
rho max/min : 1.158781097 1.158408611
PIMPLE: iteration 3
smoothSolver:  Solving for Ux, Initial residual = 7.333683404e-06, Final residual = 7.118938666e-08, No Iterations 1
smoothSolver:  Solving for Uy, Initial residual = 3.66427751e-05, Final residual = 3.380128703e-07, No Iterations 1
smoothSolver:  Solving for Uz, Initial residual = 3.672284374e-05, Final residual = 3.462214901e-07, No Iterations 1
smoothSolver:  Solving for e, Initial residual = 0.1015024914, Final residual = 9.729336899e-08, No Iterations 3
DICPCG:  Solving for p, Initial residual = 0.001904442701, Final residual = 9.856218846e-07, No Iterations 38
diagonal:  Solving for rho, Initial residual = 0, Final residual = 0, No Iterations 0
time step continuity errors : sum local = 2.551000227e-09, global = -6.345745004e-12, cumulative = 2.134369128e-07
rho max/min : 1.158762559 1.158369303
ExecutionTime = 0.81 s  ClockTime = 1 s

Courant Number mean: 0.009083100648 max: 0.1990638969
Time = 0.002

PIMPLE: iteration 1
smoothSolver:  Solving for Ux, Initial residual = 0.005349710674, Final residual = 2.697722711e-05, No Iterations 1
smoothSolver:  Solving for Uy, Initial residual = 0.02293445239, Final residual = 4.852437429e-05, No Iterations 1
smoothSolver:  Solving for Uz, Initial residual = 0.0229223289, Final residual = 4.957469208e-05, No Iterations 1
smoothSolver:  Solving for e, Initial residual = 0.07323411128, Final residual = 0.0002184018362, No Iterations 1
DICPCG:  Solving for p, Initial residual = 0.05068977375, Final residual = 0.0004433838333, No Iterations 30
diagonal:  Solving for rho, Initial residual = 0, Final residual = 0, No Iterations 0
time step continuity errors : sum local = 1.209288059e-06, global = 9.064046597e-08, cumulative = 3.040773788e-07
rho max/min : 1.158755771 1.158354718
PIMPLE: iteration 2
smoothSolver:  Solving for Ux, Initial residual = 6.588237929e-05, Final residual = 2.87672516e-07, No Iterations 1
smoothSolver:  Solving for Uy, Initial residual = 0.0002365584142, Final residual = 1.995754315e-06, No Iterations 1
smoothSolver:  Solving for Uz, Initial residual = 0.0002364861669, Final residual = 1.998744277e-06, No Iterations 1
smoothSolver:  Solving for e, Initial residual = 0.05137833207, Final residual = 0.0001519729506, No Iterations 1
DICPCG:  Solving for p, Initial residual = 0.01070845662, Final residual = 9.861185418e-05, No Iterations 29
diagonal:  Solving for rho, Initial residual = 0, Final residual = 0, No Iterations 0
time step continuity errors : sum local = 3.259392071e-07, global = -5.455078077e-09, cumulative = 2.986223007e-07
rho max/min : 1.158751674 1.158367025
PIMPLE: iteration 3
smoothSolver:  Solving for Ux, Initial residual = 8.507305749e-06, Final residual = 7.498593482e-08, No Iterations 1
smoothSolver:  Solving for Uy, Initial residual = 3.681764055e-05, Final residual = 3.153293006e-07, No Iterations 1
smoothSolver:  Solving for Uz, Initial residual = 3.682970831e-05, Final residual = 3.195978867e-07, No Iterations 1
smoothSolver:  Solving for e, Initial residual = 0.07281580227, Final residual = 1.032372106e-07, No Iterations 3
DICPCG:  Solving for p, Initial residual = 0.001344806003, Final residual = 7.171168483e-07, No Iterations 38
diagonal:  Solving for rho, Initial residual = 0, Final residual = 0, No Iterations 0
time step continuity errors : sum local = 2.289712996e-09, global = 2.377257376e-11, cumulative = 2.986460733e-07
rho max/min : 1.158748762 1.158347844
ExecutionTime = 0.84 s  ClockTime = 1 s

Courant Number mean: 0.008566167914 max: 0.1807408615
Time = 0.0021

PIMPLE: iteration 1
smoothSolver:  Solving for Ux, Initial residual = 0.007029545155, Final residual = 3.266482407e-05, No Iterations 1
smoothSolver:  Solving for Uy, Initial residual = 0.03045022084, Final residual = 5.737394166e-05, No Iterations 1
smoothSolver:  Solving for Uz, Initial residual = 0.03043195162, Final residual = 5.858279936e-05, No Iterations 1
smoothSolver:  Solving for e, Initial residual = 0.05645021849, Final residual = 0.0001692365861, No Iterations 1
DICPCG:  Solving for p, Initial residual = 0.03586581081, Final residual = 0.000305490377, No Iterations 30
diagonal:  Solving for rho, Initial residual = 0, Final residual = 0, No Iterations 0
time step continuity errors : sum local = 1.011124744e-06, global = 7.524404834e-08, cumulative = 3.738901216e-07
rho max/min : 1.158738154 1.158315202
PIMPLE: iteration 2
smoothSolver:  Solving for Ux, Initial residual = 6.996682888e-05, Final residual = 2.294704045e-07, No Iterations 1
smoothSolver:  Solving for Uy, Initial residual = 0.0002392025493, Final residual = 1.926282882e-06, No Iterations 1
smoothSolver:  Solving for Uz, Initial residual = 0.0002391518182, Final residual = 1.935375975e-06, No Iterations 1
smoothSolver:  Solving for e, Initial residual = 0.04146912621, Final residual = 0.0001207497546, No Iterations 1
DICPCG:  Solving for p, Initial residual = 0.009977702829, Final residual = 9.512650868e-05, No Iterations 29
diagonal:  Solving for rho, Initial residual = 0, Final residual = 0, No Iterations 0
time step continuity errors : sum local = 3.596423852e-07, global = -5.230306078e-09, cumulative = 3.686598155e-07
rho max/min : 1.158728087 1.15832929
PIMPLE: iteration 3
smoothSolver:  Solving for Ux, Initial residual = 9.562243017e-06, Final residual = 7.447932502e-08, No Iterations 1
smoothSolver:  Solving for Uy, Initial residual = 3.424376693e-05, Final residual = 2.585563442e-07, No Iterations 1
smoothSolver:  Solving for Uz, Initial residual = 3.431062427e-05, Final residual = 2.660425332e-07, No Iterations 1
smoothSolver:  Solving for e, Initial residual = 0.05234714, Final residual = 7.403841845e-08, No Iterations 3
DICPCG:  Solving for p, Initial residual = 0.001128758583, Final residual = 9.765327199e-07, No Iterations 36
diagonal:  Solving for rho, Initial residual = 0, Final residual = 0, No Iterations 0
time step continuity errors : sum local = 3.57483996e-09, global = -2.919537223e-10, cumulative = 3.683678618e-07
rho max/min : 1.158729449 1.158329076
ExecutionTime = 0.87 s  ClockTime = 1 s

Courant Number mean: 0.007971143771 max: 0.1682305008
Time = 0.0022

PIMPLE: iteration 1
smoothSolver:  Solving for Ux, Initial residual = 0.008665272597, Final residual = 3.643500955e-05, No Iterations 1
smoothSolver:  Solving for Uy, Initial residual = 0.03794067198, Final residual = 6.403352466e-05, No Iterations 1
smoothSolver:  Solving for Uz, Initial residual = 0.03792492424, Final residual = 6.540356872e-05, No Iterations 1
smoothSolver:  Solving for e, Initial residual = 0.04309906438, Final residual = 0.0001300452581, No Iterations 1
DICPCG:  Solving for p, Initial residual = 0.02551768668, Final residual = 0.0002148360396, No Iterations 30
diagonal:  Solving for rho, Initial residual = 0, Final residual = 0, No Iterations 0
time step continuity errors : sum local = 8.062822634e-07, global = 5.797253245e-08, cumulative = 4.263403943e-07
rho max/min : 1.158732056 1.158288738
PIMPLE: iteration 2
smoothSolver:  Solving for Ux, Initial residual = 7.207170427e-05, Final residual = 1.769933243e-07, No Iterations 1
smoothSolver:  Solving for Uy, Initial residual = 0.0002322387795, Final residual = 1.899750314e-06, No Iterations 1
smoothSolver:  Solving for Uz, Initial residual = 0.0002321025141, Final residual = 1.902626699e-06, No Iterations 1
smoothSolver:  Solving for e, Initial residual = 0.0333770768, Final residual = 9.939958795e-05, No Iterations 1
DICPCG:  Solving for p, Initial residual = 0.009440629011, Final residual = 9.029153354e-05, No Iterations 29
diagonal:  Solving for rho, Initial residual = 0, Final residual = 0, No Iterations 0
time step continuity errors : sum local = 3.706977796e-07, global = -6.716956534e-09, cumulative = 4.196234377e-07
rho max/min : 1.15873026 1.158303951
PIMPLE: iteration 3
smoothSolver:  Solving for Ux, Initial residual = 1.067891447e-05, Final residual = 7.037833874e-08, No Iterations 1
smoothSolver:  Solving for Uy, Initial residual = 3.194053126e-05, Final residual = 2.353194508e-07, No Iterations 1
smoothSolver:  Solving for Uz, Initial residual = 3.203458108e-05, Final residual = 2.412465562e-07, No Iterations 1
smoothSolver:  Solving for e, Initial residual = 0.03779059614, Final residual = 5.41038757e-08, No Iterations 3
DICPCG:  Solving for p, Initial residual = 0.0009781093427, Final residual = 9.555891232e-07, No Iterations 35
diagonal:  Solving for rho, Initial residual = 0, Final residual = 0, No Iterations 0
time step continuity errors : sum local = 3.80518584e-09, global = -3.815887741e-10, cumulative = 4.19241849e-07
rho max/min : 1.158745669 1.158303574
ExecutionTime = 0.9 s  ClockTime = 1 s

Courant Number mean: 0.007323532415 max: 0.1554276938
Time = 0.0023

PIMPLE: iteration 1
smoothSolver:  Solving for Ux, Initial residual = 0.01023108078, Final residual = 3.830608033e-05, No Iterations 1
smoothSolver:  Solving for Uy, Initial residual = 0.04533103555, Final residual = 6.836438147e-05, No Iterations 1
smoothSolver:  Solving for Uz, Initial residual = 0.04530817305, Final residual = 6.97630911e-05, No Iterations 1
smoothSolver:  Solving for e, Initial residual = 0.03205187658, Final residual = 9.414990705e-05, No Iterations 1
DICPCG:  Solving for p, Initial residual = 0.01696002695, Final residual = 0.0001353676747, No Iterations 30
diagonal:  Solving for rho, Initial residual = 0, Final residual = 0, No Iterations 0
time step continuity errors : sum local = 5.478873955e-07, global = 3.907290559e-08, cumulative = 4.583147545e-07
rho max/min : 1.158726144 1.158275689
PIMPLE: iteration 2
smoothSolver:  Solving for Ux, Initial residual = 7.054933511e-05, Final residual = 1.30145733e-07, No Iterations 1
smoothSolver:  Solving for Uy, Initial residual = 0.0002440884962, Final residual = 1.723710204e-06, No Iterations 1
smoothSolver:  Solving for Uz, Initial residual = 0.0002439816284, Final residual = 1.723443579e-06, No Iterations 1
smoothSolver:  Solving for e, Initial residual = 0.02755111933, Final residual = 7.483361045e-05, No Iterations 1
DICPCG:  Solving for p, Initial residual = 0.008922204668, Final residual = 8.634041588e-05, No Iterations 29
diagonal:  Solving for rho, Initial residual = 0, Final residual = 0, No Iterations 0
time step continuity errors : sum local = 3.690789281e-07, global = -8.116522133e-09, cumulative = 4.501982324e-07
rho max/min : 1.158731828 1.158291373
PIMPLE: iteration 3
smoothSolver:  Solving for Ux, Initial residual = 1.141326401e-05, Final residual = 6.468542509e-08, No Iterations 1
smoothSolver:  Solving for Uy, Initial residual = 2.893376331e-05, Final residual = 1.976254873e-07, No Iterations 1
smoothSolver:  Solving for Uz, Initial residual = 2.895333711e-05, Final residual = 2.016872203e-07, No Iterations 1
smoothSolver:  Solving for e, Initial residual = 0.0254860822, Final residual = 6.897564909e-07, No Iterations 2
DICPCG:  Solving for p, Initial residual = 0.0008652312991, Final residual = 9.668273737e-07, No Iterations 33
diagonal:  Solving for rho, Initial residual = 0, Final residual = 0, No Iterations 0
time step continuity errors : sum local = 4.012847942e-09, global = 8.829757782e-11, cumulative = 4.5028653e-07
rho max/min : 1.158752572 1.15829086
ExecutionTime = 0.94 s  ClockTime = 1 s

Courant Number mean: 0.006649187238 max: 0.1417195858
Time = 0.0024

PIMPLE: iteration 1
smoothSolver:  Solving for Ux, Initial residual = 0.01169963937, Final residual = 3.842486213e-05, No Iterations 1
smoothSolver:  Solving for Uy, Initial residual = 0.05235831592, Final residual = 6.989216136e-05, No Iterations 1
smoothSolver:  Solving for Uz, Initial residual = 0.05233848331, Final residual = 7.128153483e-05, No Iterations 1
smoothSolver:  Solving for e, Initial residual = 0.02302796129, Final residual = 6.36190574e-05, No Iterations 1
DICPCG:  Solving for p, Initial residual = 0.009849918512, Final residual = 9.397094159e-05, No Iterations 29
diagonal:  Solving for rho, Initial residual = 0, Final residual = 0, No Iterations 0
time step continuity errors : sum local = 3.933361113e-07, global = 1.490488874e-09, cumulative = 4.517770189e-07
rho max/min : 1.158736243 1.158275926
PIMPLE: iteration 2
smoothSolver:  Solving for Ux, Initial residual = 6.641714204e-05, Final residual = 8.634894437e-08, No Iterations 1
smoothSolver:  Solving for Uy, Initial residual = 0.0002250249321, Final residual = 1.40944785e-06, No Iterations 1
smoothSolver:  Solving for Uz, Initial residual = 0.0002249031615, Final residual = 1.410667098e-06, No Iterations 1
smoothSolver:  Solving for e, Initial residual = 0.02469311834, Final residual = 7.827889185e-05, No Iterations 1
DICPCG:  Solving for p, Initial residual = 0.00853096057, Final residual = 6.798248927e-05, No Iterations 30
diagonal:  Solving for rho, Initial residual = 0, Final residual = 0, No Iterations 0
time step continuity errors : sum local = 2.911544864e-07, global = -1.918805347e-08, cumulative = 4.325889654e-07
rho max/min : 1.158776083 1.158277266
PIMPLE: iteration 3
smoothSolver:  Solving for Ux, Initial residual = 1.178542594e-05, Final residual = 5.548483777e-08, No Iterations 1
smoothSolver:  Solving for Uy, Initial residual = 2.630426639e-05, Final residual = 1.416776551e-07, No Iterations 1
smoothSolver:  Solving for Uz, Initial residual = 2.625683402e-05, Final residual = 1.418320265e-07, No Iterations 1
smoothSolver:  Solving for e, Initial residual = 0.01896534982, Final residual = 6.116168359e-07, No Iterations 2
DICPCG:  Solving for p, Initial residual = 0.0007939497091, Final residual = 8.485916064e-07, No Iterations 33
diagonal:  Solving for rho, Initial residual = 0, Final residual = 0, No Iterations 0
time step continuity errors : sum local = 3.531477875e-09, global = 8.226840514e-12, cumulative = 4.325971922e-07
rho max/min : 1.158742713 1.158290843
ExecutionTime = 0.97 s  ClockTime = 1 s

Courant Number mean: 0.005975726063 max: 0.127642155
Time = 0.0025

PIMPLE: iteration 1
smoothSolver:  Solving for Ux, Initial residual = 0.01300928266, Final residual = 3.704868796e-05, No Iterations 1
smoothSolver:  Solving for Uy, Initial residual = 0.05848534696, Final residual = 6.866435552e-05, No Iterations 1
smoothSolver:  Solving for Uz, Initial residual = 0.05845896547, Final residual = 6.987364174e-05, No Iterations 1
smoothSolver:  Solving for e, Initial residual = 0.01501950924, Final residual = 5.019338761e-05, No Iterations 1
DICPCG:  Solving for p, Initial residual = 0.003087476841, Final residual = 2.518402587e-05, No Iterations 19
diagonal:  Solving for rho, Initial residual = 0, Final residual = 0, No Iterations 0
time step continuity errors : sum local = 1.049367076e-07, global = 9.424387527e-09, cumulative = 4.420215798e-07
rho max/min : 1.158753671 1.158288866
PIMPLE: iteration 2
smoothSolver:  Solving for Ux, Initial residual = 6.044042793e-05, Final residual = 7.142505481e-08, No Iterations 1
smoothSolver:  Solving for Uy, Initial residual = 0.0002271700374, Final residual = 1.132409789e-06, No Iterations 1
smoothSolver:  Solving for Uz, Initial residual = 0.0002269936751, Final residual = 1.133291616e-06, No Iterations 1
smoothSolver:  Solving for e, Initial residual = 0.02162458924, Final residual = 6.446126154e-05, No Iterations 1
DICPCG:  Solving for p, Initial residual = 0.00836045521, Final residual = 6.341636178e-05, No Iterations 30
diagonal:  Solving for rho, Initial residual = 0, Final residual = 0, No Iterations 0
time step continuity errors : sum local = 2.624052811e-07, global = -1.801765349e-08, cumulative = 4.240039263e-07
rho max/min : 1.158746676 1.15830369
PIMPLE: iteration 3
smoothSolver:  Solving for Ux, Initial residual = 1.177678536e-05, Final residual = 4.473975877e-08, No Iterations 1
smoothSolver:  Solving for Uy, Initial residual = 2.16395835e-05, Final residual = 7.853840256e-08, No Iterations 1
smoothSolver:  Solving for Uz, Initial residual = 2.170544826e-05, Final residual = 7.970193825e-08, No Iterations 1
smoothSolver:  Solving for e, Initial residual = 0.009692391866, Final residual = 2.777569384e-07, No Iterations 2
DICPCG:  Solving for p, Initial residual = 0.0007641164367, Final residual = 8.632839266e-07, No Iterations 33
diagonal:  Solving for rho, Initial residual = 0, Final residual = 0, No Iterations 0
time step continuity errors : sum local = 3.471944102e-09, global = 1.810198199e-10, cumulative = 4.241849461e-07
rho max/min : 1.158757666 1.158297129
ExecutionTime = 1 s  ClockTime = 1 s

Courant Number mean: 0.0053273886 max: 0.1137726315
Time = 0.0026

PIMPLE: iteration 1
smoothSolver:  Solving for Ux, Initial residual = 0.01405203163, Final residual = 3.432197169e-05, No Iterations 1
smoothSolver:  Solving for Uy, Initial residual = 0.0633464209, Final residual = 6.494405721e-05, No Iterations 1
smoothSolver:  Solving for Uz, Initial residual = 0.06331617927, Final residual = 6.596915282e-05, No Iterations 1
smoothSolver:  Solving for e, Initial residual = 0.01542305555, Final residual = 3.914949654e-05, No Iterations 1
DICPCG:  Solving for p, Initial residual = 0.008476714358, Final residual = 6.291527336e-05, No Iterations 30
diagonal:  Solving for rho, Initial residual = 0, Final residual = 0, No Iterations 0
time step continuity errors : sum local = 2.515802332e-07, global = -1.707219801e-08, cumulative = 4.071127481e-07
rho max/min : 1.158734828 1.158313502
PIMPLE: iteration 2
smoothSolver:  Solving for Ux, Initial residual = 5.817123526e-05, Final residual = 9.007062033e-08, No Iterations 1
smoothSolver:  Solving for Uy, Initial residual = 0.0002135885739, Final residual = 8.891167637e-07, No Iterations 1
smoothSolver:  Solving for Uz, Initial residual = 0.0002133897797, Final residual = 8.89596972e-07, No Iterations 1
smoothSolver:  Solving for e, Initial residual = 0.02503383936, Final residual = 5.309362987e-05, No Iterations 1
DICPCG:  Solving for p, Initial residual = 0.008608041385, Final residual = 8.418218674e-05, No Iterations 29
diagonal:  Solving for rho, Initial residual = 0, Final residual = 0, No Iterations 0
time step continuity errors : sum local = 3.241499862e-07, global = -2.282125367e-09, cumulative = 4.048306227e-07
rho max/min : 1.158773177 1.158297175
PIMPLE: iteration 3
smoothSolver:  Solving for Ux, Initial residual = 1.15132038e-05, Final residual = 3.364121329e-08, No Iterations 1
smoothSolver:  Solving for Uy, Initial residual = 2.236765032e-05, Final residual = 6.682831939e-08, No Iterations 1
smoothSolver:  Solving for Uz, Initial residual = 2.238552914e-05, Final residual = 6.727311094e-08, No Iterations 1
smoothSolver:  Solving for e, Initial residual = 0.01686787511, Final residual = 3.462491852e-07, No Iterations 2
DICPCG:  Solving for p, Initial residual = 0.0009598701338, Final residual = 7.412274036e-07, No Iterations 34
diagonal:  Solving for rho, Initial residual = 0, Final residual = 0, No Iterations 0
time step continuity errors : sum local = 2.774971412e-09, global = -2.290500582e-11, cumulative = 4.048077177e-07
rho max/min : 1.158738586 1.158326381
ExecutionTime = 1.04 s  ClockTime = 1 s

Courant Number mean: 0.004729404102 max: 0.1004899232
Time = 0.0027

PIMPLE: iteration 1
smoothSolver:  Solving for Ux, Initial residual = 0.01465659777, Final residual = 3.052717528e-05, No Iterations 1
smoothSolver:  Solving for Uy, Initial residual = 0.06644987092, Final residual = 5.826641772e-05, No Iterations 1
smoothSolver:  Solving for Uz, Initial residual = 0.06643324051, Final residual = 5.921582769e-05, No Iterations 1
smoothSolver:  Solving for e, Initial residual = 0.02387053655, Final residual = 4.913614601e-05, No Iterations 1
DICPCG:  Solving for p, Initial residual = 0.01623022984, Final residual = 0.0001302257679, No Iterations 30
diagonal:  Solving for rho, Initial residual = 0, Final residual = 0, No Iterations 0
time step continuity errors : sum local = 4.807436143e-07, global = -3.474314159e-08, cumulative = 3.700645761e-07
rho max/min : 1.158764805 1.158309679
PIMPLE: iteration 2
smoothSolver:  Solving for Ux, Initial residual = 5.83596616e-05, Final residual = 1.20690511e-07, No Iterations 1
smoothSolver:  Solving for Uy, Initial residual = 0.0002007362092, Final residual = 6.478846892e-07, No Iterations 1
smoothSolver:  Solving for Uz, Initial residual = 0.0002008885433, Final residual = 6.516117596e-07, No Iterations 1
smoothSolver:  Solving for e, Initial residual = 0.03790019178, Final residual = 6.936390421e-05, No Iterations 1
DICPCG:  Solving for p, Initial residual = 0.009004668971, Final residual = 8.397378405e-05, No Iterations 29
diagonal:  Solving for rho, Initial residual = 0, Final residual = 0, No Iterations 0
time step continuity errors : sum local = 2.882272439e-07, global = -5.784168783e-10, cumulative = 3.694861592e-07
rho max/min : 1.158758052 1.158332652
PIMPLE: iteration 3
smoothSolver:  Solving for Ux, Initial residual = 1.107276421e-05, Final residual = 2.503606912e-08, No Iterations 1
smoothSolver:  Solving for Uy, Initial residual = 2.208393197e-05, Final residual = 4.482246166e-08, No Iterations 1
smoothSolver:  Solving for Uz, Initial residual = 2.215831494e-05, Final residual = 4.509548541e-08, No Iterations 1
smoothSolver:  Solving for e, Initial residual = 0.02547860137, Final residual = 3.364977891e-07, No Iterations 2
DICPCG:  Solving for p, Initial residual = 0.001167735341, Final residual = 9.396021722e-07, No Iterations 34
diagonal:  Solving for rho, Initial residual = 0, Final residual = 0, No Iterations 0
time step continuity errors : sum local = 3.139194281e-09, global = -9.230723046e-11, cumulative = 3.69393852e-07
rho max/min : 1.158742395 1.158359698
ExecutionTime = 1.07 s  ClockTime = 1 s

Courant Number mean: 0.004203428109 max: 0.09285714304
Time = 0.0028

PIMPLE: iteration 1
smoothSolver:  Solving for Ux, Initial residual = 0.01465551431, Final residual = 2.614635207e-05, No Iterations 1
smoothSolver:  Solving for Uy, Initial residual = 0.0664154193, Final residual = 4.946603229e-05, No Iterations 1
smoothSolver:  Solving for Uz, Initial residual = 0.06639172852, Final residual = 5.026006352e-05, No Iterations 1
smoothSolver:  Solving for e, Initial residual = 0.03316738375, Final residual = 4.873241731e-05, No Iterations 1
DICPCG:  Solving for p, Initial residual = 0.02563938324, Final residual = 0.0002150792538, No Iterations 30
diagonal:  Solving for rho, Initial residual = 0, Final residual = 0, No Iterations 0
time step continuity errors : sum local = 7.014164783e-07, global = -4.932091322e-08, cumulative = 3.200729388e-07
rho max/min : 1.158745017 1.158349168
PIMPLE: iteration 2
smoothSolver:  Solving for Ux, Initial residual = 5.83551389e-05, Final residual = 1.411017408e-07, No Iterations 1
smoothSolver:  Solving for Uy, Initial residual = 0.0001750642714, Final residual = 4.495852996e-07, No Iterations 1
smoothSolver:  Solving for Uz, Initial residual = 0.0001749839255, Final residual = 4.5173417e-07, No Iterations 1
smoothSolver:  Solving for e, Initial residual = 0.05516429568, Final residual = 8.352416594e-05, No Iterations 1
DICPCG:  Solving for p, Initial residual = 0.009630835698, Final residual = 8.383628442e-05, No Iterations 29
diagonal:  Solving for rho, Initial residual = 0, Final residual = 0, No Iterations 0
time step continuity errors : sum local = 2.433461661e-07, global = 4.209774764e-09, cumulative = 3.242827135e-07
rho max/min : 1.158780054 1.158364731
PIMPLE: iteration 3
smoothSolver:  Solving for Ux, Initial residual = 1.017326967e-05, Final residual = 1.639352378e-08, No Iterations 1
smoothSolver:  Solving for Uy, Initial residual = 2.422045557e-05, Final residual = 3.200792247e-08, No Iterations 1
smoothSolver:  Solving for Uz, Initial residual = 2.433813915e-05, Final residual = 3.280245597e-08, No Iterations 1
smoothSolver:  Solving for e, Initial residual = 0.04097943658, Final residual = 5.922049525e-07, No Iterations 2
DICPCG:  Solving for p, Initial residual = 0.001527807639, Final residual = 9.761376784e-07, No Iterations 32
diagonal:  Solving for rho, Initial residual = 0, Final residual = 0, No Iterations 0
time step continuity errors : sum local = 2.760955162e-09, global = -1.386506774e-10, cumulative = 3.241440629e-07
rho max/min : 1.158743126 1.15839761
ExecutionTime = 1.1 s  ClockTime = 1 s

Courant Number mean: 0.003766015017 max: 0.08688129812
Time = 0.0029

PIMPLE: iteration 1
smoothSolver:  Solving for Ux, Initial residual = 0.01381902039, Final residual = 2.131525624e-05, No Iterations 1
smoothSolver:  Solving for Uy, Initial residual = 0.06281633518, Final residual = 4.007982218e-05, No Iterations 1
smoothSolver:  Solving for Uz, Initial residual = 0.06279859738, Final residual = 4.083771456e-05, No Iterations 1
smoothSolver:  Solving for e, Initial residual = 0.04714656884, Final residual = 6.746557744e-05, No Iterations 1
DICPCG:  Solving for p, Initial residual = 0.03785314137, Final residual = 0.0003167473325, No Iterations 30
diagonal:  Solving for rho, Initial residual = 0, Final residual = 0, No Iterations 0
time step continuity errors : sum local = 8.637030985e-07, global = -6.19960623e-08, cumulative = 2.621480006e-07
rho max/min : 1.158744467 1.158388221
PIMPLE: iteration 2
smoothSolver:  Solving for Ux, Initial residual = 5.840919405e-05, Final residual = 1.514054795e-07, No Iterations 1
smoothSolver:  Solving for Uy, Initial residual = 0.0001686409788, Final residual = 3.285876893e-07, No Iterations 1
smoothSolver:  Solving for Uz, Initial residual = 0.0001686695705, Final residual = 3.311173104e-07, No Iterations 1
smoothSolver:  Solving for e, Initial residual = 0.07624809336, Final residual = 9.193771339e-05, No Iterations 1
DICPCG:  Solving for p, Initial residual = 0.01056772898, Final residual = 0.0001034412846, No Iterations 28
diagonal:  Solving for rho, Initial residual = 0, Final residual = 0, No Iterations 0
time step continuity errors : sum local = 2.364744451e-07, global = 3.263902336e-08, cumulative = 2.947870239e-07
rho max/min : 1.158770642 1.158413865
PIMPLE: iteration 3
smoothSolver:  Solving for Ux, Initial residual = 8.707199688e-06, Final residual = 8.615174263e-09, No Iterations 1
smoothSolver:  Solving for Uy, Initial residual = 2.672109335e-05, Final residual = 2.518919138e-08, No Iterations 1
smoothSolver:  Solving for Uz, Initial residual = 2.684734913e-05, Final residual = 2.513219885e-08, No Iterations 1
smoothSolver:  Solving for e, Initial residual = 0.05895204318, Final residual = 6.824290334e-07, No Iterations 2
DICPCG:  Solving for p, Initial residual = 0.002157334781, Final residual = 9.059029932e-07, No Iterations 35
diagonal:  Solving for rho, Initial residual = 0, Final residual = 0, No Iterations 0
time step continuity errors : sum local = 2.022068084e-09, global = 1.677956954e-10, cumulative = 2.949548196e-07
rho max/min : 1.158746318 1.158412172
ExecutionTime = 1.13 s  ClockTime = 1 s

Courant Number mean: 0.003426941974 max: 0.08177699793
Time = 0.003

PIMPLE: iteration 1
smoothSolver:  Solving for Ux, Initial residual = 0.01194580861, Final residual = 1.638440589e-05, No Iterations 1
smoothSolver:  Solving for Uy, Initial residual = 0.05451525593, Final residual = 3.070803413e-05, No Iterations 1
smoothSolver:  Solving for Uz, Initial residual = 0.0545013281, Final residual = 3.168155868e-05, No Iterations 1
smoothSolver:  Solving for e, Initial residual = 0.06781309892, Final residual = 9.022447535e-05, No Iterations 1
DICPCG:  Solving for p, Initial residual = 0.05561226492, Final residual = 0.0004726397709, No Iterations 30
diagonal:  Solving for rho, Initial residual = 0, Final residual = 0, No Iterations 0
time step continuity errors : sum local = 9.98441139e-07, global = -7.183436533e-08, cumulative = 2.231204543e-07
rho max/min : 1.158744894 1.158440173
PIMPLE: iteration 2
smoothSolver:  Solving for Ux, Initial residual = 5.928719937e-05, Final residual = 1.54556e-07, No Iterations 1
smoothSolver:  Solving for Uy, Initial residual = 0.0001491919073, Final residual = 2.300344188e-07, No Iterations 1
smoothSolver:  Solving for Uz, Initial residual = 0.0001494677517, Final residual = 2.315331806e-07, No Iterations 1
smoothSolver:  Solving for e, Initial residual = 0.1353162168, Final residual = 0.0001969120505, No Iterations 1
DICPCG:  Solving for p, Initial residual = 0.01226572422, Final residual = 0.000121952567, No Iterations 23
diagonal:  Solving for rho, Initial residual = 0, Final residual = 0, No Iterations 0
time step continuity errors : sum local = 1.962213366e-07, global = 9.256176867e-08, cumulative = 3.15682223e-07
rho max/min : 1.158780456 1.158455005
PIMPLE: iteration 3
smoothSolver:  Solving for Ux, Initial residual = 7.048135498e-06, Final residual = 4.802899904e-09, No Iterations 1
[...]
smoothSolver:  Solving for e, Initial residual = 0.04117156891, Final residual = 0.0001028627136, No Iterations 1
DICPCG:  Solving for p, Initial residual = 0.02949513269, Final residual = 0.0002465301362, No Iterations 30
diagonal:  Solving for rho, Initial residual = 0, Final residual = 0, No Iterations 0
time step continuity errors : sum local = 4.446393392e-07, global = 3.232690689e-08, cumulative = 3.058805211e-07
rho max/min : 1.158764908 1.158405249
PIMPLE: iteration 2
smoothSolver:  Solving for Ux, Initial residual = 3.424042344e-05, Final residual = 8.16933028e-08, No Iterations 1
smoothSolver:  Solving for Uy, Initial residual = 0.0001197397042, Final residual = 7.049839664e-07, No Iterations 1
smoothSolver:  Solving for Uz, Initial residual = 0.0001197392091, Final residual = 7.086843825e-07, No Iterations 1
smoothSolver:  Solving for e, Initial residual = 0.03283259823, Final residual = 8.282056195e-05, No Iterations 1
DICPCG:  Solving for p, Initial residual = 0.009554243394, Final residual = 9.312556299e-05, No Iterations 29
diagonal:  Solving for rho, Initial residual = 0, Final residual = 0, No Iterations 0
time step continuity errors : sum local = 1.867534062e-07, global = -3.63469964e-09, cumulative = 3.022458214e-07
rho max/min : 1.158758334 1.15841094
PIMPLE: iteration 3
smoothSolver:  Solving for Ux, Initial residual = 4.213137054e-06, Final residual = 2.738227293e-08, No Iterations 1
smoothSolver:  Solving for Uy, Initial residual = 1.751628566e-05, Final residual = 9.385237152e-08, No Iterations 1
smoothSolver:  Solving for Uz, Initial residual = 1.751422273e-05, Final residual = 9.386744206e-08, No Iterations 1
smoothSolver:  Solving for e, Initial residual = 0.03776055929, Final residual = 7.39068834e-07, No Iterations 2
DICPCG:  Solving for p, Initial residual = 0.001039648446, Final residual = 8.165457945e-07, No Iterations 36
diagonal:  Solving for rho, Initial residual = 0, Final residual = 0, No Iterations 0
time step continuity errors : sum local = 1.584187333e-09, global = -1.671051475e-10, cumulative = 3.020787163e-07
rho max/min : 1.158783901 1.158391234
ExecutionTime = 1.94 s  ClockTime = 2 s

Courant Number mean: 0.006760448971 max: 0.1170768902
Time = 0.0055

PIMPLE: iteration 1
smoothSolver:  Solving for Ux, Initial residual = 0.005271092163, Final residual = 1.761090706e-05, No Iterations 1
smoothSolver:  Solving for Uy, Initial residual = 0.0229865637, Final residual = 3.359961636e-05, No Iterations 1
smoothSolver:  Solving for Uz, Initial residual = 0.02297721548, Final residual = 3.418611314e-05, No Iterations 1
smoothSolver:  Solving for e, Initial residual = 0.0319785825, Final residual = 7.484044825e-05, No Iterations 1
DICPCG:  Solving for p, Initial residual = 0.02020887085, Final residual = 0.0001668824066, No Iterations 30
diagonal:  Solving for rho, Initial residual = 0, Final residual = 0, No Iterations 0
time step continuity errors : sum local = 3.304589508e-07, global = 2.308682767e-08, cumulative = 3.25165544e-07
rho max/min : 1.15876522 1.158400434
PIMPLE: iteration 2
smoothSolver:  Solving for Ux, Initial residual = 3.401333422e-05, Final residual = 6.041497798e-08, No Iterations 1
smoothSolver:  Solving for Uy, Initial residual = 0.0001145428537, Final residual = 6.438040476e-07, No Iterations 1
smoothSolver:  Solving for Uz, Initial residual = 0.0001144596438, Final residual = 6.471397425e-07, No Iterations 1
smoothSolver:  Solving for e, Initial residual = 0.02681375293, Final residual = 6.271411795e-05, No Iterations 1
DICPCG:  Solving for p, Initial residual = 0.009044338939, Final residual = 6.831410008e-05, No Iterations 30
diagonal:  Solving for rho, Initial residual = 0, Final residual = 0, No Iterations 0
time step continuity errors : sum local = 1.447890697e-07, global = -1.000820921e-08, cumulative = 3.151573348e-07
rho max/min : 1.1587867 1.158387792
PIMPLE: iteration 3
smoothSolver:  Solving for Ux, Initial residual = 4.551016515e-06, Final residual = 2.612446662e-08, No Iterations 1
smoothSolver:  Solving for Uy, Initial residual = 1.609102014e-05, Final residual = 8.038944928e-08, No Iterations 1
smoothSolver:  Solving for Uz, Initial residual = 1.606970017e-05, Final residual = 8.096265321e-08, No Iterations 1
smoothSolver:  Solving for e, Initial residual = 0.02903572809, Final residual = 7.191354286e-07, No Iterations 2
DICPCG:  Solving for p, Initial residual = 0.0009233126496, Final residual = 9.41595466e-07, No Iterations 34
diagonal:  Solving for rho, Initial residual = 0, Final residual = 0, No Iterations 0
time step continuity errors : sum local = 1.932886475e-09, global = -6.658727956e-11, cumulative = 3.150907475e-07
rho max/min : 1.158779547 1.158400719
ExecutionTime = 1.97 s  ClockTime = 2 s

Courant Number mean: 0.006441746363 max: 0.1111467583
Time = 0.0056

PIMPLE: iteration 1
smoothSolver:  Solving for Ux, Initial residual = 0.005854912032, Final residual = 1.825351369e-05, No Iterations 1
smoothSolver:  Solving for Uy, Initial residual = 0.02570637906, Final residual = 3.478389471e-05, No Iterations 1
smoothSolver:  Solving for Uz, Initial residual = 0.02569499598, Final residual = 3.540432702e-05, No Iterations 1
smoothSolver:  Solving for e, Initial residual = 0.02299276579, Final residual = 6.544235043e-05, No Iterations 1
DICPCG:  Solving for p, Initial residual = 0.0129352323, Final residual = 9.980223822e-05, No Iterations 30
diagonal:  Solving for rho, Initial residual = 0, Final residual = 0, No Iterations 0
time step continuity errors : sum local = 2.072096203e-07, global = 1.324216765e-08, cumulative = 3.283329151e-07
rho max/min : 1.158781755 1.158391066
PIMPLE: iteration 2
smoothSolver:  Solving for Ux, Initial residual = 3.278212722e-05, Final residual = 4.049661851e-08, No Iterations 1
smoothSolver:  Solving for Uy, Initial residual = 0.0001160278946, Final residual = 5.948835699e-07, No Iterations 1
smoothSolver:  Solving for Uz, Initial residual = 0.0001159695227, Final residual = 5.976694233e-07, No Iterations 1
smoothSolver:  Solving for e, Initial residual = 0.02179947481, Final residual = 7.067909937e-05, No Iterations 1
DICPCG:  Solving for p, Initial residual = 0.008672470918, Final residual = 8.547126894e-05, No Iterations 29
diagonal:  Solving for rho, Initial residual = 0, Final residual = 0, No Iterations 0
time step continuity errors : sum local = 1.836268353e-07, global = -4.379483163e-09, cumulative = 3.23953432e-07
rho max/min : 1.158766826 1.158413859
PIMPLE: iteration 3
smoothSolver:  Solving for Ux, Initial residual = 4.765504163e-06, Final residual = 2.236466624e-08, No Iterations 1
smoothSolver:  Solving for Uy, Initial residual = 1.487787672e-05, Final residual = 6.068125425e-08, No Iterations 1
smoothSolver:  Solving for Uz, Initial residual = 1.492750326e-05, Final residual = 6.200279287e-08, No Iterations 1
smoothSolver:  Solving for e, Initial residual = 0.02063733243, Final residual = 6.131289675e-07, No Iterations 2
DICPCG:  Solving for p, Initial residual = 0.0008485257922, Final residual = 9.825247011e-07, No Iterations 33
diagonal:  Solving for rho, Initial residual = 0, Final residual = 0, No Iterations 0
time step continuity errors : sum local = 2.046209616e-09, global = 2.570205077e-11, cumulative = 3.23979134e-07
rho max/min : 1.158777427 1.158415005
ExecutionTime = 2.01 s  ClockTime = 2 s

Courant Number mean: 0.006119735923 max: 0.1073674766
Time = 0.0057

PIMPLE: iteration 1
smoothSolver:  Solving for Ux, Initial residual = 0.006262214774, Final residual = 1.814362133e-05, No Iterations 1
smoothSolver:  Solving for Uy, Initial residual = 0.02775586125, Final residual = 3.462488535e-05, No Iterations 1
smoothSolver:  Solving for Uz, Initial residual = 0.02774724361, Final residual = 3.534693663e-05, No Iterations 1
smoothSolver:  Solving for e, Initial residual = 0.01842210196, Final residual = 4.949547757e-05, No Iterations 1
DICPCG:  Solving for p, Initial residual = 0.006291955311, Final residual = 5.373825826e-05, No Iterations 28
diagonal:  Solving for rho, Initial residual = 0, Final residual = 0, No Iterations 0
time step continuity errors : sum local = 1.123480257e-07, global = -1.376706541e-08, cumulative = 3.102120686e-07
rho max/min : 1.15877745 1.158399312
PIMPLE: iteration 2
smoothSolver:  Solving for Ux, Initial residual = 3.069235073e-05, Final residual = 3.517577659e-08, No Iterations 1
smoothSolver:  Solving for Uy, Initial residual = 0.0001178194594, Final residual = 5.686688724e-07, No Iterations 1
smoothSolver:  Solving for Uz, Initial residual = 0.0001177971908, Final residual = 5.70410835e-07, No Iterations 1
smoothSolver:  Solving for e, Initial residual = 0.02485893286, Final residual = 6.146205675e-05, No Iterations 1
DICPCG:  Solving for p, Initial residual = 0.008525610956, Final residual = 6.57637834e-05, No Iterations 30
diagonal:  Solving for rho, Initial residual = 0, Final residual = 0, No Iterations 0
time step continuity errors : sum local = 1.379963425e-07, global = -9.228287995e-09, cumulative = 3.009837806e-07
rho max/min : 1.158778564 1.158428228
PIMPLE: iteration 3
smoothSolver:  Solving for Ux, Initial residual = 4.89929503e-06, Final residual = 1.92868666e-08, No Iterations 1
smoothSolver:  Solving for Uy, Initial residual = 1.4212077e-05, Final residual = 5.604367239e-08, No Iterations 1
smoothSolver:  Solving for Uz, Initial residual = 1.426795088e-05, Final residual = 5.717263821e-08, No Iterations 1
smoothSolver:  Solving for e, Initial residual = 0.01296631774, Final residual = 3.673162531e-07, No Iterations 2
DICPCG:  Solving for p, Initial residual = 0.0007709743373, Final residual = 9.138615436e-07, No Iterations 33
diagonal:  Solving for rho, Initial residual = 0, Final residual = 0, No Iterations 0
time step continuity errors : sum local = 1.860516949e-09, global = 1.946016893e-10, cumulative = 3.011783823e-07
rho max/min : 1.158776478 1.158415459
ExecutionTime = 2.04 s  ClockTime = 2 s

Courant Number mean: 0.005806270217 max: 0.1034020222
Time = 0.0058

PIMPLE: iteration 1
smoothSolver:  Solving for Ux, Initial residual = 0.006469297299, Final residual = 1.737838301e-05, No Iterations 1
smoothSolver:  Solving for Uy, Initial residual = 0.02857432432, Final residual = 3.248878099e-05, No Iterations 1
smoothSolver:  Solving for Uz, Initial residual = 0.02856324608, Final residual = 3.32309597e-05, No Iterations 1
smoothSolver:  Solving for e, Initial residual = 0.01233852737, Final residual = 3.808749803e-05, No Iterations 1
DICPCG:  Solving for p, Initial residual = 0.005518318665, Final residual = 5.149857211e-05, No Iterations 29
diagonal:  Solving for rho, Initial residual = 0, Final residual = 0, No Iterations 0
time step continuity errors : sum local = 1.045169274e-07, global = 5.248833277e-10, cumulative = 3.017032656e-07
rho max/min : 1.158775443 1.158419209
PIMPLE: iteration 2
smoothSolver:  Solving for Ux, Initial residual = 2.866503945e-05, Final residual = 4.135407129e-08, No Iterations 1
smoothSolver:  Solving for Uy, Initial residual = 0.0001150839471, Final residual = 4.915671199e-07, No Iterations 1
smoothSolver:  Solving for Uz, Initial residual = 0.0001150262649, Final residual = 4.91437751e-07, No Iterations 1
smoothSolver:  Solving for e, Initial residual = 0.01843083941, Final residual = 4.652666307e-05, No Iterations 1
DICPCG:  Solving for p, Initial residual = 0.008555869747, Final residual = 8.346495857e-05, No Iterations 29
diagonal:  Solving for rho, Initial residual = 0, Final residual = 0, No Iterations 0
time step continuity errors : sum local = 1.649031898e-07, global = -1.959354218e-09, cumulative = 2.997439114e-07
rho max/min : 1.158777698 1.158419208
PIMPLE: iteration 3
smoothSolver:  Solving for Ux, Initial residual = 4.835441286e-06, Final residual = 1.642001342e-08, No Iterations 1
smoothSolver:  Solving for Uy, Initial residual = 1.341422297e-05, Final residual = 4.811679291e-08, No Iterations 1
smoothSolver:  Solving for Uz, Initial residual = 1.341379793e-05, Final residual = 4.768156853e-08, No Iterations 1
smoothSolver:  Solving for e, Initial residual = 0.01053066935, Final residual = 3.529817356e-07, No Iterations 2
DICPCG:  Solving for p, Initial residual = 0.0008438012702, Final residual = 7.276833379e-07, No Iterations 34
diagonal:  Solving for rho, Initial residual = 0, Final residual = 0, No Iterations 0
time step continuity errors : sum local = 1.395825838e-09, global = 4.692170516e-12, cumulative = 2.997486036e-07
rho max/min : 1.158769444 1.158436018
ExecutionTime = 2.08 s  ClockTime = 2 s

Courant Number mean: 0.005511309109 max: 0.09943860277
Time = 0.0059

PIMPLE: iteration 1
smoothSolver:  Solving for Ux, Initial residual = 0.006430131408, Final residual = 1.604398898e-05, No Iterations 1
smoothSolver:  Solving for Uy, Initial residual = 0.02837145096, Final residual = 2.927275457e-05, No Iterations 1
smoothSolver:  Solving for Uz, Initial residual = 0.02836443279, Final residual = 2.997472656e-05, No Iterations 1
smoothSolver:  Solving for e, Initial residual = 0.01817955054, Final residual = 4.392358485e-05, No Iterations 1
DICPCG:  Solving for p, Initial residual = 0.01268427008, Final residual = 0.0001068839638, No Iterations 30
diagonal:  Solving for rho, Initial residual = 0, Final residual = 0, No Iterations 0
time step continuity errors : sum local = 2.029025941e-07, global = -1.344097928e-08, cumulative = 2.863076243e-07
rho max/min : 1.158777582 1.158412153
PIMPLE: iteration 2
smoothSolver:  Solving for Ux, Initial residual = 2.686088975e-05, Final residual = 5.274002325e-08, No Iterations 1
smoothSolver:  Solving for Uy, Initial residual = 0.0001009762453, Final residual = 3.981057862e-07, No Iterations 1
smoothSolver:  Solving for Uz, Initial residual = 0.0001009540004, Final residual = 4.012380341e-07, No Iterations 1
smoothSolver:  Solving for e, Initial residual = 0.03228067853, Final residual = 7.720368711e-05, No Iterations 1
DICPCG:  Solving for p, Initial residual = 0.008885002839, Final residual = 8.446935413e-05, No Iterations 29
diagonal:  Solving for rho, Initial residual = 0, Final residual = 0, No Iterations 0
time step continuity errors : sum local = 1.511315522e-07, global = -1.182753292e-09, cumulative = 2.85124871e-07
rho max/min : 1.158776829 1.158448677
PIMPLE: iteration 3
smoothSolver:  Solving for Ux, Initial residual = 4.53920425e-06, Final residual = 1.265330762e-08, No Iterations 1
smoothSolver:  Solving for Uy, Initial residual = 1.184711717e-05, Final residual = 3.855338498e-08, No Iterations 1
smoothSolver:  Solving for Uz, Initial residual = 1.182008862e-05, Final residual = 3.898726006e-08, No Iterations 1
smoothSolver:  Solving for e, Initial residual = 0.01983874667, Final residual = 4.867522448e-07, No Iterations 2
DICPCG:  Solving for p, Initial residual = 0.001055603121, Final residual = 8.631621187e-07, No Iterations 34
diagonal:  Solving for rho, Initial residual = 0, Final residual = 0, No Iterations 0
time step continuity errors : sum local = 1.501135099e-09, global = -2.291021341e-11, cumulative = 2.851019608e-07
rho max/min : 1.158763286 1.158447271
ExecutionTime = 2.11 s  ClockTime = 2 s

Courant Number mean: 0.00524484997 max: 0.09560843239
Time = 0.006

PIMPLE: iteration 1
smoothSolver:  Solving for Ux, Initial residual = 0.006114527674, Final residual = 1.419179892e-05, No Iterations 1
smoothSolver:  Solving for Uy, Initial residual = 0.02698250157, Final residual = 2.519783235e-05, No Iterations 1
smoothSolver:  Solving for Uz, Initial residual = 0.02697647832, Final residual = 2.583706136e-05, No Iterations 1
smoothSolver:  Solving for e, Initial residual = 0.02515894031, Final residual = 5.17210893e-05, No Iterations 1
DICPCG:  Solving for p, Initial residual = 0.0208278397, Final residual = 0.0001770367629, No Iterations 30
diagonal:  Solving for rho, Initial residual = 0, Final residual = 0, No Iterations 0
time step continuity errors : sum local = 3.020506261e-07, global = -2.175815956e-08, cumulative = 2.633438012e-07
rho max/min : 1.158771175 1.158436104
PIMPLE: iteration 2
smoothSolver:  Solving for Ux, Initial residual = 2.498854884e-05, Final residual = 6.237514128e-08, No Iterations 1
smoothSolver:  Solving for Uy, Initial residual = 9.038058665e-05, Final residual = 2.90670365e-07, No Iterations 1
smoothSolver:  Solving for Uz, Initial residual = 9.037520042e-05, Final residual = 2.916818201e-07, No Iterations 1
smoothSolver:  Solving for e, Initial residual = 0.03748344316, Final residual = 7.693670217e-05, No Iterations 1
DICPCG:  Solving for p, Initial residual = 0.009451056334, Final residual = 8.392930886e-05, No Iterations 29
diagonal:  Solving for rho, Initial residual = 0, Final residual = 0, No Iterations 0
time step continuity errors : sum local = 1.29687788e-07, global = 1.196849298e-09, cumulative = 2.645406505e-07
rho max/min : 1.158759058 1.158464161
PIMPLE: iteration 3
smoothSolver:  Solving for Ux, Initial residual = 4.119305005e-06, Final residual = 9.500002966e-09, No Iterations 1
smoothSolver:  Solving for Uy, Initial residual = 1.165427285e-05, Final residual = 2.7116306e-08, No Iterations 1
smoothSolver:  Solving for Uz, Initial residual = 1.16939843e-05, Final residual = 2.69860542e-08, No Iterations 1
smoothSolver:  Solving for e, Initial residual = 0.0296756549, Final residual = 5.968042368e-07, No Iterations 2
DICPCG:  Solving for p, Initial residual = 0.00144669883, Final residual = 9.532115389e-07, No Iterations 33
diagonal:  Solving for rho, Initial residual = 0, Final residual = 0, No Iterations 0
time step continuity errors : sum local = 1.433203631e-09, global = -1.050016171e-10, cumulative = 2.644356489e-07
rho max/min : 1.158768052 1.158447887
ExecutionTime = 2.15 s  ClockTime = 2 s

Courant Number mean: 0.005017962539 max: 0.09206086045
Time = 0.0061

PIMPLE: iteration 1
smoothSolver:  Solving for Ux, Initial residual = 0.005511665415, Final residual = 1.199333469e-05, No Iterations 1
smoothSolver:  Solving for Uy, Initial residual = 0.02423750306, Final residual = 2.064476487e-05, No Iterations 1
smoothSolver:  Solving for Uz, Initial residual = 0.02423350681, Final residual = 2.110844571e-05, No Iterations 1
smoothSolver:  Solving for e, Initial residual = 0.03543902807, Final residual = 6.406614134e-05, No Iterations 1
DICPCG:  Solving for p, Initial residual = 0.03164496554, Final residual = 0.0002737353737, No Iterations 30
diagonal:  Solving for rho, Initial residual = 0, Final residual = 0, No Iterations 0
time step continuity errors : sum local = 3.992320852e-07, global = -2.853887174e-08, cumulative = 2.358967772e-07
rho max/min : 1.158761288 1.158451786
PIMPLE: iteration 2
smoothSolver:  Solving for Ux, Initial residual = 2.331640153e-05, Final residual = 7.062632606e-08, No Iterations 1
smoothSolver:  Solving for Uy, Initial residual = 7.933702753e-05, Final residual = 2.075507132e-07, No Iterations 1
smoothSolver:  Solving for Uz, Initial residual = 7.933041549e-05, Final residual = 2.082966042e-07, No Iterations 1
smoothSolver:  Solving for e, Initial residual = 0.052820831, Final residual = 0.0001059788743, No Iterations 1
DICPCG:  Solving for p, Initial residual = 0.01035891138, Final residual = 8.497319424e-05, No Iterations 29
diagonal:  Solving for rho, Initial residual = 0, Final residual = 0, No Iterations 0
time step continuity errors : sum local = 1.064952466e-07, global = 3.365384051e-09, cumulative = 2.392621612e-07
rho max/min : 1.158765282 1.158466424
PIMPLE: iteration 3
smoothSolver:  Solving for Ux, Initial residual = 3.571710718e-06, Final residual = 6.071054029e-09, No Iterations 1
smoothSolver:  Solving for Uy, Initial residual = 1.181433885e-05, Final residual = 2.025651992e-08, No Iterations 1
smoothSolver:  Solving for Uz, Initial residual = 1.185890485e-05, Final residual = 2.048863831e-08, No Iterations 1
[mpiexec@wjq] Sending Ctrl-C to processes as requested
[mpiexec@wjq] Press Ctrl-C again to force abort
