/*---------------------------------------------------------------------------*\
  =========                 |
  \\      /  F ield         | OpenFOAM: The Open Source CFD Toolbox
   \\    /   O peration     | Website:  https://openfoam.org
    \\  /    A nd           | Version:  7
     \\/     M anipulation  |
\*---------------------------------------------------------------------------*/
Build  : 7-83cd285f0e3f
Exec   : setFields
Date   : Jan 28 2022
Time   : 16:00:37
Host   : "login3.pi.sjtu.edu.cn"
PID    : 6700
I/O    : collated (maxThreadFileBufferSize 2e+09)
         Threading activated since maxThreadFileBufferSize > 0.
         Requires large enough buffer to collect all data or thread support 
         enabled in MPI. If thread support cannot be enabled, deactivate
         threading by setting maxThreadFileBufferSize to 0 in
         $FOAM_ETC/controlDict
Case   : /lustre/home/acct-medgm/medgm/05-NSCBC/Workspace/run/sod_shock_tube
nProcs : 1
sigFpe : Enabling floating point exception trapping (FOAM_SIGFPE).
fileModificationChecking : Monitoring run-time modified files using timeStamp (fileModificationSkew 10)
allowSystemOperations : Allowing user-supplied system call operations

// * * * * * * * * * * * * * * * * * * * * * * * * * * * * * * * * * * * * * //
Create time

Create mesh for time = 0

Reading setFieldsDict

Setting field default values
    Setting internal values of volVectorField U
    Setting internal values of volScalarField T
    Setting internal values of volScalarField p

Setting field region values
    Adding cells with center within boxes 1((0.5 -100 -100) (100 100 100))
    Setting internal values of volScalarField T
    Setting internal values of volScalarField p

End

