/*---------------------------------------------------------------------------*\
  =========                 |
  \\      /  F ield         | OpenFOAM: The Open Source CFD Toolbox
   \\    /   O peration     | Website:  https://openfoam.org
    \\  /    A nd           | Version:  7
     \\/     M anipulation  |
\*---------------------------------------------------------------------------*/
Build  : 7-83cd285f0e3f
Exec   : postProcess -func components(U)
Date   : Feb 02 2022
Time   : 14:35:53
Host   : "login3.pi.sjtu.edu.cn"
PID    : 31115
I/O    : collated (maxThreadFileBufferSize 2e+09)
         Threading activated since maxThreadFileBufferSize > 0.
         Requires large enough buffer to collect all data or thread support 
         enabled in MPI. If thread support cannot be enabled, deactivate
         threading by setting maxThreadFileBufferSize to 0 in
         $FOAM_ETC/controlDict
Case   : /lustre/home/acct-medgm/medgm/05-NSCBC/Workspace/run/sod_shock_tube
nProcs : 1
sigFpe : Enabling floating point exception trapping (FOAM_SIGFPE).
fileModificationChecking : Monitoring run-time modified files using timeStamp (fileModificationSkew 10)
allowSystemOperations : Allowing user-supplied system call operations

// * * * * * * * * * * * * * * * * * * * * * * * * * * * * * * * * * * * * * //
Create time

--> FOAM Warning : 
    From function void* Foam::dlOpen(const Foam::fileName&, bool)
    in file POSIX.C at line 1251
    dlopen error : libpressureOutletNSCBC.so: cannot open shared object file: No such file or directory
--> FOAM Warning : 
    From function bool Foam::dlLibraryTable::open(const Foam::fileName&, bool)
    in file db/dynamicLibrary/dlLibraryTable/dlLibraryTable.C at line 105
    could not load "libpressureOutletNSCBC.so"
--> FOAM Warning : 
    From function void* Foam::dlOpen(const Foam::fileName&, bool)
    in file POSIX.C at line 1251
    dlopen error : libpressureInletNSCBC.so: cannot open shared object file: No such file or directory
--> FOAM Warning : 
    From function bool Foam::dlLibraryTable::open(const Foam::fileName&, bool)
    in file db/dynamicLibrary/dlLibraryTable/dlLibraryTable.C at line 105
    could not load "libpressureInletNSCBC.so"
Create mesh for time = 0

Time = 0

Reading fields:
    volVectorFields: U

Executing functionObjects
    functionObjects::components components(U) writing field: Ux
    functionObjects::components components(U) writing field: Uy
    functionObjects::components components(U) writing field: Uz

Time = 1e-05

Reading fields:
    volVectorFields: U

Executing functionObjects
    functionObjects::components components(U) writing field: Ux
    functionObjects::components components(U) writing field: Uy
    functionObjects::components components(U) writing field: Uz

Time = 2e-05

Reading fields:
    volVectorFields: U

Executing functionObjects
    functionObjects::components components(U) writing field: Ux
    functionObjects::components components(U) writing field: Uy
    functionObjects::components components(U) writing field: Uz

Time = 3e-05

Reading fields:
    volVectorFields: U

Executing functionObjects
    functionObjects::components components(U) writing field: Ux
    functionObjects::components components(U) writing field: Uy
    functionObjects::components components(U) writing field: Uz

Time = 4e-05

Reading fields:
    volVectorFields: U

Executing functionObjects
    functionObjects::components components(U) writing field: Ux
    functionObjects::components components(U) writing field: Uy
    functionObjects::components components(U) writing field: Uz

Time = 5e-05

Reading fields:
    volVectorFields: U

Executing functionObjects
    functionObjects::components components(U) writing field: Ux
    functionObjects::components components(U) writing field: Uy
    functionObjects::components components(U) writing field: Uz

Time = 6e-05

Reading fields:
    volVectorFields: U

Executing functionObjects
    functionObjects::components components(U) writing field: Ux
    functionObjects::components components(U) writing field: Uy
    functionObjects::components components(U) writing field: Uz

Time = 7e-05

Reading fields:
    volVectorFields: U

Executing functionObjects
    functionObjects::components components(U) writing field: Ux
    functionObjects::components components(U) writing field: Uy
    functionObjects::components components(U) writing field: Uz

Time = 8e-05

Reading fields:
    volVectorFields: U

Executing functionObjects
    functionObjects::components components(U) writing field: Ux
    functionObjects::components components(U) writing field: Uy
    functionObjects::components components(U) writing field: Uz

Time = 9e-05

Reading fields:
    volVectorFields: U

Executing functionObjects
    functionObjects::components components(U) writing field: Ux
    functionObjects::components components(U) writing field: Uy
    functionObjects::components components(U) writing field: Uz

Time = 0.0001

Reading fields:
    volVectorFields: U

Executing functionObjects
    functionObjects::components components(U) writing field: Ux
    functionObjects::components components(U) writing field: Uy
    functionObjects::components components(U) writing field: Uz

Time = 0.00011

Reading fields:
    volVectorFields: U

Executing functionObjects
    functionObjects::components components(U) writing field: Ux
    functionObjects::components components(U) writing field: Uy
    functionObjects::components components(U) writing field: Uz

Time = 0.00012

Reading fields:
    volVectorFields: U

Executing functionObjects
    functionObjects::components components(U) writing field: Ux
    functionObjects::components components(U) writing field: Uy
    functionObjects::components components(U) writing field: Uz

Time = 0.00013

Reading fields:
    volVectorFields: U

Executing functionObjects
    functionObjects::components components(U) writing field: Ux
    functionObjects::components components(U) writing field: Uy
    functionObjects::components components(U) writing field: Uz

Time = 0.00014

Reading fields:
    volVectorFields: U

Executing functionObjects
    functionObjects::components components(U) writing field: Ux
    functionObjects::components components(U) writing field: Uy
    functionObjects::components components(U) writing field: Uz

Time = 0.00015

Reading fields:
    volVectorFields: U

Executing functionObjects
    functionObjects::components components(U) writing field: Ux
    functionObjects::components components(U) writing field: Uy
    functionObjects::components components(U) writing field: Uz

Time = 0.00016

Reading fields:
    volVectorFields: U

Executing functionObjects
    functionObjects::components components(U) writing field: Ux
    functionObjects::components components(U) writing field: Uy
    functionObjects::components components(U) writing field: Uz

Time = 0.00017

Reading fields:
    volVectorFields: U

Executing functionObjects
    functionObjects::components components(U) writing field: Ux
    functionObjects::components components(U) writing field: Uy
    functionObjects::components components(U) writing field: Uz

Time = 0.00018

Reading fields:
    volVectorFields: U

Executing functionObjects
    functionObjects::components components(U) writing field: Ux
    functionObjects::components components(U) writing field: Uy
    functionObjects::components components(U) writing field: Uz

Time = 0.00019

Reading fields:
    volVectorFields: U

Executing functionObjects
    functionObjects::components components(U) writing field: Ux
    functionObjects::components components(U) writing field: Uy
    functionObjects::components components(U) writing field: Uz

Time = 0.0002

Reading fields:
    volVectorFields: U

Executing functionObjects
    functionObjects::components components(U) writing field: Ux
    functionObjects::components components(U) writing field: Uy
    functionObjects::components components(U) writing field: Uz

Time = 0.00021

Reading fields:
    volVectorFields: U

Executing functionObjects
    functionObjects::components components(U) writing field: Ux
    functionObjects::components components(U) writing field: Uy
    functionObjects::components components(U) writing field: Uz

Time = 0.00022

Reading fields:
    volVectorFields: U

Executing functionObjects
    functionObjects::components components(U) writing field: Ux
    functionObjects::components components(U) writing field: Uy
    functionObjects::components components(U) writing field: Uz

Time = 0.00023

Reading fields:
    volVectorFields: U

Executing functionObjects
    functionObjects::components components(U) writing field: Ux
    functionObjects::components components(U) writing field: Uy
    functionObjects::components components(U) writing field: Uz

Time = 0.00024

Reading fields:
    volVectorFields: U

Executing functionObjects
    functionObjects::components components(U) writing field: Ux
    functionObjects::components components(U) writing field: Uy
    functionObjects::components components(U) writing field: Uz

Time = 0.00025

Reading fields:
    volVectorFields: U

Executing functionObjects
    functionObjects::components components(U) writing field: Ux
    functionObjects::components components(U) writing field: Uy
    functionObjects::components components(U) writing field: Uz

Time = 0.00026

Reading fields:
    volVectorFields: U

Executing functionObjects
    functionObjects::components components(U) writing field: Ux
    functionObjects::components components(U) writing field: Uy
    functionObjects::components components(U) writing field: Uz

Time = 0.00027

Reading fields:
    volVectorFields: U

Executing functionObjects
    functionObjects::components components(U) writing field: Ux
    functionObjects::components components(U) writing field: Uy
    functionObjects::components components(U) writing field: Uz

Time = 0.00028

Reading fields:
    volVectorFields: U

Executing functionObjects
    functionObjects::components components(U) writing field: Ux
    functionObjects::components components(U) writing field: Uy
    functionObjects::components components(U) writing field: Uz

Time = 0.00029

Reading fields:
    volVectorFields: U

Executing functionObjects
    functionObjects::components components(U) writing field: Ux
    functionObjects::components components(U) writing field: Uy
    functionObjects::components components(U) writing field: Uz

Time = 0.0003

Reading fields:
    volVectorFields: U

Executing functionObjects
    functionObjects::components components(U) writing field: Ux
    functionObjects::components components(U) writing field: Uy
    functionObjects::components components(U) writing field: Uz

Time = 0.00031

Reading fields:
    volVectorFields: U

Executing functionObjects
    functionObjects::components components(U) writing field: Ux
    functionObjects::components components(U) writing field: Uy
    functionObjects::components components(U) writing field: Uz

Time = 0.00032

Reading fields:
    volVectorFields: U

Executing functionObjects
    functionObjects::components components(U) writing field: Ux
    functionObjects::components components(U) writing field: Uy
    functionObjects::components components(U) writing field: Uz

Time = 0.00033

Reading fields:
    volVectorFields: U

Executing functionObjects
    functionObjects::components components(U) writing field: Ux
    functionObjects::components components(U) writing field: Uy
    functionObjects::components components(U) writing field: Uz

Time = 0.00034

Reading fields:
    volVectorFields: U

Executing functionObjects
    functionObjects::components components(U) writing field: Ux
    functionObjects::components components(U) writing field: Uy
    functionObjects::components components(U) writing field: Uz

Time = 0.00035

Reading fields:
    volVectorFields: U

Executing functionObjects
    functionObjects::components components(U) writing field: Ux
    functionObjects::components components(U) writing field: Uy
    functionObjects::components components(U) writing field: Uz

Time = 0.00036

Reading fields:
    volVectorFields: U

Executing functionObjects
    functionObjects::components components(U) writing field: Ux
    functionObjects::components components(U) writing field: Uy
    functionObjects::components components(U) writing field: Uz

Time = 0.00037

Reading fields:
    volVectorFields: U

Executing functionObjects
    functionObjects::components components(U) writing field: Ux
    functionObjects::components components(U) writing field: Uy
    functionObjects::components components(U) writing field: Uz

Time = 0.00038

Reading fields:
    volVectorFields: U

Executing functionObjects
    functionObjects::components components(U) writing field: Ux
    functionObjects::components components(U) writing field: Uy
    functionObjects::components components(U) writing field: Uz

Time = 0.00039

Reading fields:
    volVectorFields: U

Executing functionObjects
    functionObjects::components components(U) writing field: Ux
    functionObjects::components components(U) writing field: Uy
    functionObjects::components components(U) writing field: Uz

Time = 0.0004

Reading fields:
    volVectorFields: U

Executing functionObjects
    functionObjects::components components(U) writing field: Ux
    functionObjects::components components(U) writing field: Uy
    functionObjects::components components(U) writing field: Uz

Time = 0.00041

Reading fields:
    volVectorFields: U

Executing functionObjects
    functionObjects::components components(U) writing field: Ux
    functionObjects::components components(U) writing field: Uy
    functionObjects::components components(U) writing field: Uz

Time = 0.00042

Reading fields:
    volVectorFields: U

Executing functionObjects
    functionObjects::components components(U) writing field: Ux
    functionObjects::components components(U) writing field: Uy
    functionObjects::components components(U) writing field: Uz

Time = 0.00043

Reading fields:
    volVectorFields: U

Executing functionObjects
    functionObjects::components components(U) writing field: Ux
    functionObjects::components components(U) writing field: Uy
    functionObjects::components components(U) writing field: Uz

Time = 0.00044

Reading fields:
    volVectorFields: U

Executing functionObjects
    functionObjects::components components(U) writing field: Ux
    functionObjects::components components(U) writing field: Uy
    functionObjects::components components(U) writing field: Uz

Time = 0.00045

Reading fields:
    volVectorFields: U

Executing functionObjects
    functionObjects::components components(U) writing field: Ux
    functionObjects::components components(U) writing field: Uy
    functionObjects::components components(U) writing field: Uz

Time = 0.00046

Reading fields:
    volVectorFields: U

Executing functionObjects
    functionObjects::components components(U) writing field: Ux
    functionObjects::components components(U) writing field: Uy
    functionObjects::components components(U) writing field: Uz

Time = 0.00047

Reading fields:
    volVectorFields: U

Executing functionObjects
    functionObjects::components components(U) writing field: Ux
    functionObjects::components components(U) writing field: Uy
    functionObjects::components components(U) writing field: Uz

Time = 0.00048

Reading fields:
    volVectorFields: U

Executing functionObjects
    functionObjects::components components(U) writing field: Ux
    functionObjects::components components(U) writing field: Uy
    functionObjects::components components(U) writing field: Uz

Time = 0.00049

Reading fields:
    volVectorFields: U

Executing functionObjects
    functionObjects::components components(U) writing field: Ux
    functionObjects::components components(U) writing field: Uy
    functionObjects::components components(U) writing field: Uz

Time = 0.0005

Reading fields:
    volVectorFields: U

Executing functionObjects
    functionObjects::components components(U) writing field: Ux
    functionObjects::components components(U) writing field: Uy
    functionObjects::components components(U) writing field: Uz

Time = 0.00051

Reading fields:
    volVectorFields: U

Executing functionObjects
    functionObjects::components components(U) writing field: Ux
    functionObjects::components components(U) writing field: Uy
    functionObjects::components components(U) writing field: Uz

Time = 0.00052

Reading fields:
    volVectorFields: U

Executing functionObjects
    functionObjects::components components(U) writing field: Ux
    functionObjects::components components(U) writing field: Uy
    functionObjects::components components(U) writing field: Uz

Time = 0.00053

Reading fields:
    volVectorFields: U

Executing functionObjects
    functionObjects::components components(U) writing field: Ux
    functionObjects::components components(U) writing field: Uy
    functionObjects::components components(U) writing field: Uz

Time = 0.00054

Reading fields:
    volVectorFields: U

Executing functionObjects
    functionObjects::components components(U) writing field: Ux
    functionObjects::components components(U) writing field: Uy
    functionObjects::components components(U) writing field: Uz

Time = 0.00055

Reading fields:
    volVectorFields: U

Executing functionObjects
    functionObjects::components components(U) writing field: Ux
    functionObjects::components components(U) writing field: Uy
    functionObjects::components components(U) writing field: Uz

Time = 0.00056

Reading fields:
    volVectorFields: U

Executing functionObjects
    functionObjects::components components(U) writing field: Ux
    functionObjects::components components(U) writing field: Uy
    functionObjects::components components(U) writing field: Uz

Time = 0.00057

Reading fields:
    volVectorFields: U

Executing functionObjects
    functionObjects::components components(U) writing field: Ux
    functionObjects::components components(U) writing field: Uy
    functionObjects::components components(U) writing field: Uz

Time = 0.00058

Reading fields:
    volVectorFields: U

Executing functionObjects
    functionObjects::components components(U) writing field: Ux
    functionObjects::components components(U) writing field: Uy
    functionObjects::components components(U) writing field: Uz

Time = 0.00059

Reading fields:
    volVectorFields: U

Executing functionObjects
    functionObjects::components components(U) writing field: Ux
    functionObjects::components components(U) writing field: Uy
    functionObjects::components components(U) writing field: Uz

Time = 0.0006

Reading fields:
    volVectorFields: U

Executing functionObjects
    functionObjects::components components(U) writing field: Ux
    functionObjects::components components(U) writing field: Uy
    functionObjects::components components(U) writing field: Uz

Time = 0.00061

Reading fields:
    volVectorFields: U

Executing functionObjects
    functionObjects::components components(U) writing field: Ux
    functionObjects::components components(U) writing field: Uy
    functionObjects::components components(U) writing field: Uz

Time = 0.00062

Reading fields:
    volVectorFields: U

Executing functionObjects
    functionObjects::components components(U) writing field: Ux
    functionObjects::components components(U) writing field: Uy
    functionObjects::components components(U) writing field: Uz

Time = 0.00063

Reading fields:
    volVectorFields: U

Executing functionObjects
    functionObjects::components components(U) writing field: Ux
    functionObjects::components components(U) writing field: Uy
    functionObjects::components components(U) writing field: Uz

Time = 0.00064

Reading fields:
    volVectorFields: U

Executing functionObjects
    functionObjects::components components(U) writing field: Ux
    functionObjects::components components(U) writing field: Uy
    functionObjects::components components(U) writing field: Uz

Time = 0.00065

Reading fields:
    volVectorFields: U

Executing functionObjects
    functionObjects::components components(U) writing field: Ux
    functionObjects::components components(U) writing field: Uy
    functionObjects::components components(U) writing field: Uz

Time = 0.00066

Reading fields:
    volVectorFields: U

Executing functionObjects
    functionObjects::components components(U) writing field: Ux
    functionObjects::components components(U) writing field: Uy
    functionObjects::components components(U) writing field: Uz

Time = 0.00067

Reading fields:
    volVectorFields: U

Executing functionObjects
    functionObjects::components components(U) writing field: Ux
    functionObjects::components components(U) writing field: Uy
    functionObjects::components components(U) writing field: Uz

Time = 0.00068

Reading fields:
    volVectorFields: U

Executing functionObjects
    functionObjects::components components(U) writing field: Ux
    functionObjects::components components(U) writing field: Uy
    functionObjects::components components(U) writing field: Uz

Time = 0.00069

Reading fields:
    volVectorFields: U

Executing functionObjects
    functionObjects::components components(U) writing field: Ux
    functionObjects::components components(U) writing field: Uy
    functionObjects::components components(U) writing field: Uz

Time = 0.0007

Reading fields:
    volVectorFields: U

Executing functionObjects
    functionObjects::components components(U) writing field: Ux
    functionObjects::components components(U) writing field: Uy
    functionObjects::components components(U) writing field: Uz

Time = 0.00071

Reading fields:
    volVectorFields: U

Executing functionObjects
    functionObjects::components components(U) writing field: Ux
    functionObjects::components components(U) writing field: Uy
    functionObjects::components components(U) writing field: Uz

Time = 0.00072

Reading fields:
    volVectorFields: U

Executing functionObjects
    functionObjects::components components(U) writing field: Ux
    functionObjects::components components(U) writing field: Uy
    functionObjects::components components(U) writing field: Uz

Time = 0.00073

Reading fields:
    volVectorFields: U

Executing functionObjects
    functionObjects::components components(U) writing field: Ux
    functionObjects::components components(U) writing field: Uy
    functionObjects::components components(U) writing field: Uz

Time = 0.00074

Reading fields:
    volVectorFields: U

Executing functionObjects
    functionObjects::components components(U) writing field: Ux
    functionObjects::components components(U) writing field: Uy
    functionObjects::components components(U) writing field: Uz

Time = 0.00075

Reading fields:
    volVectorFields: U

Executing functionObjects
    functionObjects::components components(U) writing field: Ux
    functionObjects::components components(U) writing field: Uy
    functionObjects::components components(U) writing field: Uz

Time = 0.00076

Reading fields:
    volVectorFields: U

Executing functionObjects
    functionObjects::components components(U) writing field: Ux
    functionObjects::components components(U) writing field: Uy
    functionObjects::components components(U) writing field: Uz

Time = 0.00077

Reading fields:
    volVectorFields: U

Executing functionObjects
    functionObjects::components components(U) writing field: Ux
    functionObjects::components components(U) writing field: Uy
    functionObjects::components components(U) writing field: Uz

Time = 0.00078

Reading fields:
    volVectorFields: U

Executing functionObjects
    functionObjects::components components(U) writing field: Ux
    functionObjects::components components(U) writing field: Uy
    functionObjects::components components(U) writing field: Uz

Time = 0.00079

Reading fields:
    volVectorFields: U

Executing functionObjects
    functionObjects::components components(U) writing field: Ux
    functionObjects::components components(U) writing field: Uy
    functionObjects::components components(U) writing field: Uz

Time = 0.0008

Reading fields:
    volVectorFields: U

Executing functionObjects
    functionObjects::components components(U) writing field: Ux
    functionObjects::components components(U) writing field: Uy
    functionObjects::components components(U) writing field: Uz

Time = 0.00081

Reading fields:
    volVectorFields: U

Executing functionObjects
    functionObjects::components components(U) writing field: Ux
    functionObjects::components components(U) writing field: Uy
    functionObjects::components components(U) writing field: Uz

Time = 0.00082

Reading fields:
    volVectorFields: U

Executing functionObjects
    functionObjects::components components(U) writing field: Ux
    functionObjects::components components(U) writing field: Uy
    functionObjects::components components(U) writing field: Uz

Time = 0.00083

Reading fields:
    volVectorFields: U

Executing functionObjects
    functionObjects::components components(U) writing field: Ux
    functionObjects::components components(U) writing field: Uy
    functionObjects::components components(U) writing field: Uz

Time = 0.00084

Reading fields:
    volVectorFields: U

Executing functionObjects
    functionObjects::components components(U) writing field: Ux
    functionObjects::components components(U) writing field: Uy
    functionObjects::components components(U) writing field: Uz

Time = 0.00085

Reading fields:
    volVectorFields: U

Executing functionObjects
    functionObjects::components components(U) writing field: Ux
    functionObjects::components components(U) writing field: Uy
    functionObjects::components components(U) writing field: Uz

Time = 0.00086

Reading fields:
    volVectorFields: U

Executing functionObjects
    functionObjects::components components(U) writing field: Ux
    functionObjects::components components(U) writing field: Uy
    functionObjects::components components(U) writing field: Uz

Time = 0.00087

Reading fields:
    volVectorFields: U

Executing functionObjects
    functionObjects::components components(U) writing field: Ux
    functionObjects::components components(U) writing field: Uy
    functionObjects::components components(U) writing field: Uz

Time = 0.00088

Reading fields:
    volVectorFields: U

Executing functionObjects
    functionObjects::components components(U) writing field: Ux
    functionObjects::components components(U) writing field: Uy
    functionObjects::components components(U) writing field: Uz

Time = 0.00089

Reading fields:
    volVectorFields: U

Executing functionObjects
    functionObjects::components components(U) writing field: Ux
    functionObjects::components components(U) writing field: Uy
    functionObjects::components components(U) writing field: Uz

Time = 0.0009

Reading fields:
    volVectorFields: U

Executing functionObjects
    functionObjects::components components(U) writing field: Ux
    functionObjects::components components(U) writing field: Uy
    functionObjects::components components(U) writing field: Uz

Time = 0.00091

Reading fields:
    volVectorFields: U

Executing functionObjects
    functionObjects::components components(U) writing field: Ux
    functionObjects::components components(U) writing field: Uy
    functionObjects::components components(U) writing field: Uz

Time = 0.00092

Reading fields:
    volVectorFields: U

Executing functionObjects
    functionObjects::components components(U) writing field: Ux
    functionObjects::components components(U) writing field: Uy
    functionObjects::components components(U) writing field: Uz

Time = 0.00093

Reading fields:
    volVectorFields: U

Executing functionObjects
    functionObjects::components components(U) writing field: Ux
    functionObjects::components components(U) writing field: Uy
    functionObjects::components components(U) writing field: Uz

Time = 0.00094

Reading fields:
    volVectorFields: U

Executing functionObjects
    functionObjects::components components(U) writing field: Ux
    functionObjects::components components(U) writing field: Uy
    functionObjects::components components(U) writing field: Uz

Time = 0.00095

Reading fields:
    volVectorFields: U

Executing functionObjects
    functionObjects::components components(U) writing field: Ux
    functionObjects::components components(U) writing field: Uy
    functionObjects::components components(U) writing field: Uz

Time = 0.00096

Reading fields:
    volVectorFields: U

Executing functionObjects
    functionObjects::components components(U) writing field: Ux
    functionObjects::components components(U) writing field: Uy
    functionObjects::components components(U) writing field: Uz

Time = 0.00097

Reading fields:
    volVectorFields: U

Executing functionObjects
    functionObjects::components components(U) writing field: Ux
    functionObjects::components components(U) writing field: Uy
    functionObjects::components components(U) writing field: Uz

Time = 0.00098

Reading fields:
    volVectorFields: U

Executing functionObjects
    functionObjects::components components(U) writing field: Ux
    functionObjects::components components(U) writing field: Uy
    functionObjects::components components(U) writing field: Uz

Time = 0.00099

Reading fields:
    volVectorFields: U

Executing functionObjects
    functionObjects::components components(U) writing field: Ux
    functionObjects::components components(U) writing field: Uy
    functionObjects::components components(U) writing field: Uz

Time = 0.001

Reading fields:
    volVectorFields: U

Executing functionObjects
    functionObjects::components components(U) writing field: Ux
    functionObjects::components components(U) writing field: Uy
    functionObjects::components components(U) writing field: Uz

Time = 0.00101

Reading fields:
    volVectorFields: U

Executing functionObjects
    functionObjects::components components(U) writing field: Ux
    functionObjects::components components(U) writing field: Uy
    functionObjects::components components(U) writing field: Uz

Time = 0.00102

Reading fields:
    volVectorFields: U

Executing functionObjects
    functionObjects::components components(U) writing field: Ux
    functionObjects::components components(U) writing field: Uy
    functionObjects::components components(U) writing field: Uz

Time = 0.00103

Reading fields:
    volVectorFields: U

Executing functionObjects
    functionObjects::components components(U) writing field: Ux
    functionObjects::components components(U) writing field: Uy
    functionObjects::components components(U) writing field: Uz

Time = 0.00104

Reading fields:
    volVectorFields: U

Executing functionObjects
    functionObjects::components components(U) writing field: Ux
    functionObjects::components components(U) writing field: Uy
    functionObjects::components components(U) writing field: Uz

Time = 0.00105

Reading fields:
    volVectorFields: U

Executing functionObjects
    functionObjects::components components(U) writing field: Ux
    functionObjects::components components(U) writing field: Uy
    functionObjects::components components(U) writing field: Uz

Time = 0.00106

Reading fields:
    volVectorFields: U

Executing functionObjects
    functionObjects::components components(U) writing field: Ux
    functionObjects::components components(U) writing field: Uy
    functionObjects::components components(U) writing field: Uz

Time = 0.00107

Reading fields:
    volVectorFields: U

Executing functionObjects
    functionObjects::components components(U) writing field: Ux
    functionObjects::components components(U) writing field: Uy
    functionObjects::components components(U) writing field: Uz

Time = 0.00108

Reading fields:
    volVectorFields: U

Executing functionObjects
    functionObjects::components components(U) writing field: Ux
    functionObjects::components components(U) writing field: Uy
    functionObjects::components components(U) writing field: Uz

Time = 0.00109

Reading fields:
    volVectorFields: U

Executing functionObjects
    functionObjects::components components(U) writing field: Ux
    functionObjects::components components(U) writing field: Uy
    functionObjects::components components(U) writing field: Uz

Time = 0.0011

Reading fields:
    volVectorFields: U

Executing functionObjects
    functionObjects::components components(U) writing field: Ux
    functionObjects::components components(U) writing field: Uy
    functionObjects::components components(U) writing field: Uz

Time = 0.00111

Reading fields:
    volVectorFields: U

Executing functionObjects
    functionObjects::components components(U) writing field: Ux
    functionObjects::components components(U) writing field: Uy
    functionObjects::components components(U) writing field: Uz

Time = 0.00112

Reading fields:
    volVectorFields: U

Executing functionObjects
    functionObjects::components components(U) writing field: Ux
    functionObjects::components components(U) writing field: Uy
    functionObjects::components components(U) writing field: Uz

Time = 0.00113

Reading fields:
    volVectorFields: U

Executing functionObjects
    functionObjects::components components(U) writing field: Ux
    functionObjects::components components(U) writing field: Uy
    functionObjects::components components(U) writing field: Uz

Time = 0.00114

Reading fields:
    volVectorFields: U

Executing functionObjects
    functionObjects::components components(U) writing field: Ux
    functionObjects::components components(U) writing field: Uy
    functionObjects::components components(U) writing field: Uz

Time = 0.00115

Reading fields:
    volVectorFields: U

Executing functionObjects
    functionObjects::components components(U) writing field: Ux
    functionObjects::components components(U) writing field: Uy
    functionObjects::components components(U) writing field: Uz

Time = 0.00116

Reading fields:
    volVectorFields: U

Executing functionObjects
    functionObjects::components components(U) writing field: Ux
    functionObjects::components components(U) writing field: Uy
    functionObjects::components components(U) writing field: Uz

Time = 0.00117

Reading fields:
    volVectorFields: U

Executing functionObjects
    functionObjects::components components(U) writing field: Ux
    functionObjects::components components(U) writing field: Uy
    functionObjects::components components(U) writing field: Uz

Time = 0.00118

Reading fields:
    volVectorFields: U

Executing functionObjects
    functionObjects::components components(U) writing field: Ux
    functionObjects::components components(U) writing field: Uy
    functionObjects::components components(U) writing field: Uz

Time = 0.00119

Reading fields:
    volVectorFields: U

Executing functionObjects
    functionObjects::components components(U) writing field: Ux
    functionObjects::components components(U) writing field: Uy
    functionObjects::components components(U) writing field: Uz

Time = 0.0012

Reading fields:
    volVectorFields: U

Executing functionObjects
    functionObjects::components components(U) writing field: Ux
    functionObjects::components components(U) writing field: Uy
    functionObjects::components components(U) writing field: Uz

Time = 0.00121

Reading fields:
    volVectorFields: U

Executing functionObjects
    functionObjects::components components(U) writing field: Ux
    functionObjects::components components(U) writing field: Uy
    functionObjects::components components(U) writing field: Uz

Time = 0.00122

Reading fields:
    volVectorFields: U

Executing functionObjects
    functionObjects::components components(U) writing field: Ux
    functionObjects::components components(U) writing field: Uy
    functionObjects::components components(U) writing field: Uz

Time = 0.00123

Reading fields:
    volVectorFields: U

Executing functionObjects
    functionObjects::components components(U) writing field: Ux
    functionObjects::components components(U) writing field: Uy
    functionObjects::components components(U) writing field: Uz

Time = 0.00124

Reading fields:
    volVectorFields: U

Executing functionObjects
    functionObjects::components components(U) writing field: Ux
    functionObjects::components components(U) writing field: Uy
    functionObjects::components components(U) writing field: Uz

Time = 0.00125

Reading fields:
    volVectorFields: U

Executing functionObjects
    functionObjects::components components(U) writing field: Ux
    functionObjects::components components(U) writing field: Uy
    functionObjects::components components(U) writing field: Uz

Time = 0.00126

Reading fields:
    volVectorFields: U

Executing functionObjects
    functionObjects::components components(U) writing field: Ux
    functionObjects::components components(U) writing field: Uy
    functionObjects::components components(U) writing field: Uz

Time = 0.00127

Reading fields:
    volVectorFields: U

Executing functionObjects
    functionObjects::components components(U) writing field: Ux
    functionObjects::components components(U) writing field: Uy
    functionObjects::components components(U) writing field: Uz

Time = 0.00128

Reading fields:
    volVectorFields: U

Executing functionObjects
    functionObjects::components components(U) writing field: Ux
    functionObjects::components components(U) writing field: Uy
    functionObjects::components components(U) writing field: Uz

Time = 0.00129

Reading fields:
    volVectorFields: U

Executing functionObjects
    functionObjects::components components(U) writing field: Ux
    functionObjects::components components(U) writing field: Uy
    functionObjects::components components(U) writing field: Uz

Time = 0.0013

Reading fields:
    volVectorFields: U

Executing functionObjects
    functionObjects::components components(U) writing field: Ux
    functionObjects::components components(U) writing field: Uy
    functionObjects::components components(U) writing field: Uz

Time = 0.00131

Reading fields:
    volVectorFields: U

Executing functionObjects
    functionObjects::components components(U) writing field: Ux
    functionObjects::components components(U) writing field: Uy
    functionObjects::components components(U) writing field: Uz

Time = 0.00132

Reading fields:
    volVectorFields: U

Executing functionObjects
    functionObjects::components components(U) writing field: Ux
    functionObjects::components components(U) writing field: Uy
    functionObjects::components components(U) writing field: Uz

Time = 0.00133

Reading fields:
    volVectorFields: U

Executing functionObjects
    functionObjects::components components(U) writing field: Ux
    functionObjects::components components(U) writing field: Uy
    functionObjects::components components(U) writing field: Uz

Time = 0.00134

Reading fields:
    volVectorFields: U

Executing functionObjects
    functionObjects::components components(U) writing field: Ux
    functionObjects::components components(U) writing field: Uy
    functionObjects::components components(U) writing field: Uz

Time = 0.00135

Reading fields:
    volVectorFields: U

Executing functionObjects
    functionObjects::components components(U) writing field: Ux
    functionObjects::components components(U) writing field: Uy
    functionObjects::components components(U) writing field: Uz

Time = 0.00136

Reading fields:
    volVectorFields: U

Executing functionObjects
    functionObjects::components components(U) writing field: Ux
    functionObjects::components components(U) writing field: Uy
    functionObjects::components components(U) writing field: Uz

Time = 0.00137

Reading fields:
    volVectorFields: U

Executing functionObjects
    functionObjects::components components(U) writing field: Ux
    functionObjects::components components(U) writing field: Uy
    functionObjects::components components(U) writing field: Uz

Time = 0.00138

Reading fields:
    volVectorFields: U

Executing functionObjects
    functionObjects::components components(U) writing field: Ux
    functionObjects::components components(U) writing field: Uy
    functionObjects::components components(U) writing field: Uz

Time = 0.00139

Reading fields:
    volVectorFields: U

Executing functionObjects
    functionObjects::components components(U) writing field: Ux
    functionObjects::components components(U) writing field: Uy
    functionObjects::components components(U) writing field: Uz

Time = 0.0014

Reading fields:
    volVectorFields: U

Executing functionObjects
    functionObjects::components components(U) writing field: Ux
    functionObjects::components components(U) writing field: Uy
    functionObjects::components components(U) writing field: Uz

Time = 0.00141

Reading fields:
    volVectorFields: U

Executing functionObjects
    functionObjects::components components(U) writing field: Ux
    functionObjects::components components(U) writing field: Uy
    functionObjects::components components(U) writing field: Uz

Time = 0.00142

Reading fields:
    volVectorFields: U

Executing functionObjects
    functionObjects::components components(U) writing field: Ux
    functionObjects::components components(U) writing field: Uy
    functionObjects::components components(U) writing field: Uz

Time = 0.00143

Reading fields:
    volVectorFields: U

Executing functionObjects
    functionObjects::components components(U) writing field: Ux
    functionObjects::components components(U) writing field: Uy
    functionObjects::components components(U) writing field: Uz

Time = 0.00144

Reading fields:
    volVectorFields: U

Executing functionObjects
    functionObjects::components components(U) writing field: Ux
    functionObjects::components components(U) writing field: Uy
    functionObjects::components components(U) writing field: Uz

Time = 0.00145

Reading fields:
    volVectorFields: U

Executing functionObjects
    functionObjects::components components(U) writing field: Ux
    functionObjects::components components(U) writing field: Uy
    functionObjects::components components(U) writing field: Uz

Time = 0.00146

Reading fields:
    volVectorFields: U

Executing functionObjects
    functionObjects::components components(U) writing field: Ux
    functionObjects::components components(U) writing field: Uy
    functionObjects::components components(U) writing field: Uz

Time = 0.00147

Reading fields:
    volVectorFields: U

Executing functionObjects
    functionObjects::components components(U) writing field: Ux
    functionObjects::components components(U) writing field: Uy
    functionObjects::components components(U) writing field: Uz

Time = 0.00148

Reading fields:
    volVectorFields: U

Executing functionObjects
    functionObjects::components components(U) writing field: Ux
    functionObjects::components components(U) writing field: Uy
    functionObjects::components components(U) writing field: Uz

Time = 0.00149

Reading fields:
    volVectorFields: U

Executing functionObjects
    functionObjects::components components(U) writing field: Ux
    functionObjects::components components(U) writing field: Uy
    functionObjects::components components(U) writing field: Uz

Time = 0.0015

Reading fields:
    volVectorFields: U

Executing functionObjects
    functionObjects::components components(U) writing field: Ux
    functionObjects::components components(U) writing field: Uy
    functionObjects::components components(U) writing field: Uz

Time = 0.00151

Reading fields:
    volVectorFields: U

Executing functionObjects
    functionObjects::components components(U) writing field: Ux
    functionObjects::components components(U) writing field: Uy
    functionObjects::components components(U) writing field: Uz

Time = 0.00152

Reading fields:
    volVectorFields: U

Executing functionObjects
    functionObjects::components components(U) writing field: Ux
    functionObjects::components components(U) writing field: Uy
    functionObjects::components components(U) writing field: Uz

Time = 0.00153

Reading fields:
    volVectorFields: U

Executing functionObjects
    functionObjects::components components(U) writing field: Ux
    functionObjects::components components(U) writing field: Uy
    functionObjects::components components(U) writing field: Uz

Time = 0.00154

Reading fields:
    volVectorFields: U

Executing functionObjects
    functionObjects::components components(U) writing field: Ux
    functionObjects::components components(U) writing field: Uy
    functionObjects::components components(U) writing field: Uz

Time = 0.00155

Reading fields:
    volVectorFields: U

Executing functionObjects
    functionObjects::components components(U) writing field: Ux
    functionObjects::components components(U) writing field: Uy
    functionObjects::components components(U) writing field: Uz

Time = 0.00156

Reading fields:
    volVectorFields: U

Executing functionObjects
    functionObjects::components components(U) writing field: Ux
    functionObjects::components components(U) writing field: Uy
    functionObjects::components components(U) writing field: Uz

Time = 0.00157

Reading fields:
    volVectorFields: U

Executing functionObjects
    functionObjects::components components(U) writing field: Ux
    functionObjects::components components(U) writing field: Uy
    functionObjects::components components(U) writing field: Uz

Time = 0.00158

Reading fields:
    volVectorFields: U

Executing functionObjects
    functionObjects::components components(U) writing field: Ux
    functionObjects::components components(U) writing field: Uy
    functionObjects::components components(U) writing field: Uz

Time = 0.00159

Reading fields:
    volVectorFields: U

Executing functionObjects
    functionObjects::components components(U) writing field: Ux
    functionObjects::components components(U) writing field: Uy
    functionObjects::components components(U) writing field: Uz

Time = 0.0016

Reading fields:
    volVectorFields: U

Executing functionObjects
    functionObjects::components components(U) writing field: Ux
    functionObjects::components components(U) writing field: Uy
    functionObjects::components components(U) writing field: Uz

Time = 0.00161

Reading fields:
    volVectorFields: U

Executing functionObjects
    functionObjects::components components(U) writing field: Ux
    functionObjects::components components(U) writing field: Uy
    functionObjects::components components(U) writing field: Uz

Time = 0.00162

Reading fields:
    volVectorFields: U

Executing functionObjects
    functionObjects::components components(U) writing field: Ux
    functionObjects::components components(U) writing field: Uy
    functionObjects::components components(U) writing field: Uz

Time = 0.00163

Reading fields:
    volVectorFields: U

Executing functionObjects
    functionObjects::components components(U) writing field: Ux
    functionObjects::components components(U) writing field: Uy
    functionObjects::components components(U) writing field: Uz

Time = 0.00164

Reading fields:
    volVectorFields: U

Executing functionObjects
    functionObjects::components components(U) writing field: Ux
    functionObjects::components components(U) writing field: Uy
    functionObjects::components components(U) writing field: Uz

Time = 0.00165

Reading fields:
    volVectorFields: U

Executing functionObjects
    functionObjects::components components(U) writing field: Ux
    functionObjects::components components(U) writing field: Uy
    functionObjects::components components(U) writing field: Uz

Time = 0.00166

Reading fields:
    volVectorFields: U

Executing functionObjects
    functionObjects::components components(U) writing field: Ux
    functionObjects::components components(U) writing field: Uy
    functionObjects::components components(U) writing field: Uz

Time = 0.00167

Reading fields:
    volVectorFields: U

Executing functionObjects
    functionObjects::components components(U) writing field: Ux
    functionObjects::components components(U) writing field: Uy
    functionObjects::components components(U) writing field: Uz

Time = 0.00168

Reading fields:
    volVectorFields: U

Executing functionObjects
    functionObjects::components components(U) writing field: Ux
    functionObjects::components components(U) writing field: Uy
    functionObjects::components components(U) writing field: Uz

Time = 0.00169

Reading fields:
    volVectorFields: U

Executing functionObjects
    functionObjects::components components(U) writing field: Ux
    functionObjects::components components(U) writing field: Uy
    functionObjects::components components(U) writing field: Uz

Time = 0.0017

Reading fields:
    volVectorFields: U

Executing functionObjects
    functionObjects::components components(U) writing field: Ux
    functionObjects::components components(U) writing field: Uy
    functionObjects::components components(U) writing field: Uz

Time = 0.00171

Reading fields:
    volVectorFields: U

Executing functionObjects
    functionObjects::components components(U) writing field: Ux
    functionObjects::components components(U) writing field: Uy
    functionObjects::components components(U) writing field: Uz

Time = 0.00172

Reading fields:
    volVectorFields: U

Executing functionObjects
    functionObjects::components components(U) writing field: Ux
    functionObjects::components components(U) writing field: Uy
    functionObjects::components components(U) writing field: Uz

Time = 0.00173

Reading fields:
    volVectorFields: U

Executing functionObjects
    functionObjects::components components(U) writing field: Ux
    functionObjects::components components(U) writing field: Uy
    functionObjects::components components(U) writing field: Uz

Time = 0.00174

Reading fields:
    volVectorFields: U

Executing functionObjects
    functionObjects::components components(U) writing field: Ux
    functionObjects::components components(U) writing field: Uy
    functionObjects::components components(U) writing field: Uz

Time = 0.00175

Reading fields:
    volVectorFields: U

Executing functionObjects
    functionObjects::components components(U) writing field: Ux
    functionObjects::components components(U) writing field: Uy
    functionObjects::components components(U) writing field: Uz

Time = 0.00176

Reading fields:
    volVectorFields: U

Executing functionObjects
    functionObjects::components components(U) writing field: Ux
    functionObjects::components components(U) writing field: Uy
    functionObjects::components components(U) writing field: Uz

Time = 0.00177

Reading fields:
    volVectorFields: U

Executing functionObjects
    functionObjects::components components(U) writing field: Ux
    functionObjects::components components(U) writing field: Uy
    functionObjects::components components(U) writing field: Uz

Time = 0.00178

Reading fields:
    volVectorFields: U

Executing functionObjects
    functionObjects::components components(U) writing field: Ux
    functionObjects::components components(U) writing field: Uy
    functionObjects::components components(U) writing field: Uz

Time = 0.00179

Reading fields:
    volVectorFields: U

Executing functionObjects
    functionObjects::components components(U) writing field: Ux
    functionObjects::components components(U) writing field: Uy
    functionObjects::components components(U) writing field: Uz

Time = 0.0018

Reading fields:
    volVectorFields: U

Executing functionObjects
    functionObjects::components components(U) writing field: Ux
    functionObjects::components components(U) writing field: Uy
    functionObjects::components components(U) writing field: Uz

Time = 0.00181

Reading fields:
    volVectorFields: U

Executing functionObjects
    functionObjects::components components(U) writing field: Ux
    functionObjects::components components(U) writing field: Uy
    functionObjects::components components(U) writing field: Uz

Time = 0.00182

Reading fields:
    volVectorFields: U

Executing functionObjects
    functionObjects::components components(U) writing field: Ux
    functionObjects::components components(U) writing field: Uy
    functionObjects::components components(U) writing field: Uz

Time = 0.00183

Reading fields:
    volVectorFields: U

Executing functionObjects
    functionObjects::components components(U) writing field: Ux
    functionObjects::components components(U) writing field: Uy
    functionObjects::components components(U) writing field: Uz

Time = 0.00184

Reading fields:
    volVectorFields: U

Executing functionObjects
    functionObjects::components components(U) writing field: Ux
    functionObjects::components components(U) writing field: Uy
    functionObjects::components components(U) writing field: Uz

Time = 0.00185

Reading fields:
    volVectorFields: U

Executing functionObjects
    functionObjects::components components(U) writing field: Ux
    functionObjects::components components(U) writing field: Uy
    functionObjects::components components(U) writing field: Uz

Time = 0.00186

Reading fields:
    volVectorFields: U

Executing functionObjects
    functionObjects::components components(U) writing field: Ux
    functionObjects::components components(U) writing field: Uy
    functionObjects::components components(U) writing field: Uz

Time = 0.00187

Reading fields:
    volVectorFields: U

Executing functionObjects
    functionObjects::components components(U) writing field: Ux
    functionObjects::components components(U) writing field: Uy
    functionObjects::components components(U) writing field: Uz

Time = 0.00188

Reading fields:
    volVectorFields: U

Executing functionObjects
    functionObjects::components components(U) writing field: Ux
    functionObjects::components components(U) writing field: Uy
    functionObjects::components components(U) writing field: Uz

Time = 0.00189

Reading fields:
    volVectorFields: U

Executing functionObjects
    functionObjects::components components(U) writing field: Ux
    functionObjects::components components(U) writing field: Uy
    functionObjects::components components(U) writing field: Uz

Time = 0.0019

Reading fields:
    volVectorFields: U

Executing functionObjects
    functionObjects::components components(U) writing field: Ux
    functionObjects::components components(U) writing field: Uy
    functionObjects::components components(U) writing field: Uz

Time = 0.00191

Reading fields:
    volVectorFields: U

Executing functionObjects
    functionObjects::components components(U) writing field: Ux
    functionObjects::components components(U) writing field: Uy
    functionObjects::components components(U) writing field: Uz

Time = 0.00192

Reading fields:
    volVectorFields: U

Executing functionObjects
    functionObjects::components components(U) writing field: Ux
    functionObjects::components components(U) writing field: Uy
    functionObjects::components components(U) writing field: Uz

Time = 0.00193

Reading fields:
    volVectorFields: U

Executing functionObjects
    functionObjects::components components(U) writing field: Ux
    functionObjects::components components(U) writing field: Uy
    functionObjects::components components(U) writing field: Uz

Time = 0.00194

Reading fields:
    volVectorFields: U

Executing functionObjects
    functionObjects::components components(U) writing field: Ux
    functionObjects::components components(U) writing field: Uy
    functionObjects::components components(U) writing field: Uz

Time = 0.00195

Reading fields:
    volVectorFields: U

Executing functionObjects
    functionObjects::components components(U) writing field: Ux
    functionObjects::components components(U) writing field: Uy
    functionObjects::components components(U) writing field: Uz

Time = 0.00196

Reading fields:
    volVectorFields: U

Executing functionObjects
    functionObjects::components components(U) writing field: Ux
    functionObjects::components components(U) writing field: Uy
    functionObjects::components components(U) writing field: Uz

Time = 0.00197

Reading fields:
    volVectorFields: U

Executing functionObjects
    functionObjects::components components(U) writing field: Ux
    functionObjects::components components(U) writing field: Uy
    functionObjects::components components(U) writing field: Uz

Time = 0.00198

Reading fields:
    volVectorFields: U

Executing functionObjects
    functionObjects::components components(U) writing field: Ux
    functionObjects::components components(U) writing field: Uy
    functionObjects::components components(U) writing field: Uz

Time = 0.00199

Reading fields:
    volVectorFields: U

Executing functionObjects
    functionObjects::components components(U) writing field: Ux
    functionObjects::components components(U) writing field: Uy
    functionObjects::components components(U) writing field: Uz

Time = 0.002

Reading fields:
    volVectorFields: U

Executing functionObjects
    functionObjects::components components(U) writing field: Ux
    functionObjects::components components(U) writing field: Uy
    functionObjects::components components(U) writing field: Uz

Time = 0.00201

Reading fields:
    volVectorFields: U

Executing functionObjects
    functionObjects::components components(U) writing field: Ux
    functionObjects::components components(U) writing field: Uy
    functionObjects::components components(U) writing field: Uz

Time = 0.00202

Reading fields:
    volVectorFields: U

Executing functionObjects
    functionObjects::components components(U) writing field: Ux
    functionObjects::components components(U) writing field: Uy
    functionObjects::components components(U) writing field: Uz

Time = 0.00203

Reading fields:
    volVectorFields: U

Executing functionObjects
    functionObjects::components components(U) writing field: Ux
    functionObjects::components components(U) writing field: Uy
    functionObjects::components components(U) writing field: Uz

Time = 0.00204

Reading fields:
    volVectorFields: U

Executing functionObjects
    functionObjects::components components(U) writing field: Ux
    functionObjects::components components(U) writing field: Uy
    functionObjects::components components(U) writing field: Uz

Time = 0.00205

Reading fields:
    volVectorFields: U

Executing functionObjects
    functionObjects::components components(U) writing field: Ux
    functionObjects::components components(U) writing field: Uy
    functionObjects::components components(U) writing field: Uz

Time = 0.00206

Reading fields:
    volVectorFields: U

Executing functionObjects
    functionObjects::components components(U) writing field: Ux
    functionObjects::components components(U) writing field: Uy
    functionObjects::components components(U) writing field: Uz

Time = 0.00207

Reading fields:
    volVectorFields: U

Executing functionObjects
    functionObjects::components components(U) writing field: Ux
    functionObjects::components components(U) writing field: Uy
    functionObjects::components components(U) writing field: Uz

Time = 0.00208

Reading fields:
    volVectorFields: U

Executing functionObjects
    functionObjects::components components(U) writing field: Ux
    functionObjects::components components(U) writing field: Uy
    functionObjects::components components(U) writing field: Uz

Time = 0.00209

Reading fields:
    volVectorFields: U

Executing functionObjects
    functionObjects::components components(U) writing field: Ux
    functionObjects::components components(U) writing field: Uy
    functionObjects::components components(U) writing field: Uz

Time = 0.0021

Reading fields:
    volVectorFields: U

Executing functionObjects
    functionObjects::components components(U) writing field: Ux
    functionObjects::components components(U) writing field: Uy
    functionObjects::components components(U) writing field: Uz

Time = 0.00211

Reading fields:
    volVectorFields: U

Executing functionObjects
    functionObjects::components components(U) writing field: Ux
    functionObjects::components components(U) writing field: Uy
    functionObjects::components components(U) writing field: Uz

Time = 0.00212

Reading fields:
    volVectorFields: U

Executing functionObjects
    functionObjects::components components(U) writing field: Ux
    functionObjects::components components(U) writing field: Uy
    functionObjects::components components(U) writing field: Uz

Time = 0.00213

Reading fields:
    volVectorFields: U

Executing functionObjects
    functionObjects::components components(U) writing field: Ux
    functionObjects::components components(U) writing field: Uy
    functionObjects::components components(U) writing field: Uz

Time = 0.00214

Reading fields:
    volVectorFields: U

Executing functionObjects
    functionObjects::components components(U) writing field: Ux
    functionObjects::components components(U) writing field: Uy
    functionObjects::components components(U) writing field: Uz

Time = 0.00215

Reading fields:
    volVectorFields: U

Executing functionObjects
    functionObjects::components components(U) writing field: Ux
    functionObjects::components components(U) writing field: Uy
    functionObjects::components components(U) writing field: Uz

Time = 0.00216

Reading fields:
    volVectorFields: U

Executing functionObjects
    functionObjects::components components(U) writing field: Ux
    functionObjects::components components(U) writing field: Uy
    functionObjects::components components(U) writing field: Uz

Time = 0.00217

Reading fields:
    volVectorFields: U

Executing functionObjects
    functionObjects::components components(U) writing field: Ux
    functionObjects::components components(U) writing field: Uy
    functionObjects::components components(U) writing field: Uz

Time = 0.00218

Reading fields:
    volVectorFields: U

Executing functionObjects
    functionObjects::components components(U) writing field: Ux
    functionObjects::components components(U) writing field: Uy
    functionObjects::components components(U) writing field: Uz

Time = 0.00219

Reading fields:
    volVectorFields: U

Executing functionObjects
    functionObjects::components components(U) writing field: Ux
    functionObjects::components components(U) writing field: Uy
    functionObjects::components components(U) writing field: Uz

Time = 0.0022

Reading fields:
    volVectorFields: U

Executing functionObjects
    functionObjects::components components(U) writing field: Ux
    functionObjects::components components(U) writing field: Uy
    functionObjects::components components(U) writing field: Uz

Time = 0.00221

Reading fields:
    volVectorFields: U

Executing functionObjects
    functionObjects::components components(U) writing field: Ux
    functionObjects::components components(U) writing field: Uy
    functionObjects::components components(U) writing field: Uz

Time = 0.00222

Reading fields:
    volVectorFields: U

Executing functionObjects
    functionObjects::components components(U) writing field: Ux
    functionObjects::components components(U) writing field: Uy
    functionObjects::components components(U) writing field: Uz

Time = 0.00223

Reading fields:
    volVectorFields: U

Executing functionObjects
    functionObjects::components components(U) writing field: Ux
    functionObjects::components components(U) writing field: Uy
    functionObjects::components components(U) writing field: Uz

Time = 0.00224

Reading fields:
    volVectorFields: U

Executing functionObjects
    functionObjects::components components(U) writing field: Ux
    functionObjects::components components(U) writing field: Uy
    functionObjects::components components(U) writing field: Uz

Time = 0.00225

Reading fields:
    volVectorFields: U

Executing functionObjects
    functionObjects::components components(U) writing field: Ux
    functionObjects::components components(U) writing field: Uy
    functionObjects::components components(U) writing field: Uz

Time = 0.00226

Reading fields:
    volVectorFields: U

Executing functionObjects
    functionObjects::components components(U) writing field: Ux
    functionObjects::components components(U) writing field: Uy
    functionObjects::components components(U) writing field: Uz

Time = 0.00227

Reading fields:
    volVectorFields: U

Executing functionObjects
    functionObjects::components components(U) writing field: Ux
    functionObjects::components components(U) writing field: Uy
    functionObjects::components components(U) writing field: Uz

Time = 0.00228

Reading fields:
    volVectorFields: U

Executing functionObjects
    functionObjects::components components(U) writing field: Ux
    functionObjects::components components(U) writing field: Uy
    functionObjects::components components(U) writing field: Uz

Time = 0.00229

Reading fields:
    volVectorFields: U

Executing functionObjects
    functionObjects::components components(U) writing field: Ux
    functionObjects::components components(U) writing field: Uy
    functionObjects::components components(U) writing field: Uz

Time = 0.0023

Reading fields:
    volVectorFields: U

Executing functionObjects
    functionObjects::components components(U) writing field: Ux
    functionObjects::components components(U) writing field: Uy
    functionObjects::components components(U) writing field: Uz

Time = 0.00231

Reading fields:
    volVectorFields: U

Executing functionObjects
    functionObjects::components components(U) writing field: Ux
    functionObjects::components components(U) writing field: Uy
    functionObjects::components components(U) writing field: Uz

Time = 0.00232

Reading fields:
    volVectorFields: U

Executing functionObjects
    functionObjects::components components(U) writing field: Ux
    functionObjects::components components(U) writing field: Uy
    functionObjects::components components(U) writing field: Uz

Time = 0.00233

Reading fields:
    volVectorFields: U

Executing functionObjects
    functionObjects::components components(U) writing field: Ux
    functionObjects::components components(U) writing field: Uy
    functionObjects::components components(U) writing field: Uz

Time = 0.00234

Reading fields:
    volVectorFields: U

Executing functionObjects
    functionObjects::components components(U) writing field: Ux
    functionObjects::components components(U) writing field: Uy
    functionObjects::components components(U) writing field: Uz

Time = 0.00235

Reading fields:
    volVectorFields: U

Executing functionObjects
    functionObjects::components components(U) writing field: Ux
    functionObjects::components components(U) writing field: Uy
    functionObjects::components components(U) writing field: Uz

Time = 0.00236

Reading fields:
    volVectorFields: U

Executing functionObjects
    functionObjects::components components(U) writing field: Ux
    functionObjects::components components(U) writing field: Uy
    functionObjects::components components(U) writing field: Uz

Time = 0.00237

Reading fields:
    volVectorFields: U

Executing functionObjects
    functionObjects::components components(U) writing field: Ux
    functionObjects::components components(U) writing field: Uy
    functionObjects::components components(U) writing field: Uz

Time = 0.00238

Reading fields:
    volVectorFields: U

Executing functionObjects
    functionObjects::components components(U) writing field: Ux
    functionObjects::components components(U) writing field: Uy
    functionObjects::components components(U) writing field: Uz

Time = 0.00239

Reading fields:
    volVectorFields: U

Executing functionObjects
    functionObjects::components components(U) writing field: Ux
    functionObjects::components components(U) writing field: Uy
    functionObjects::components components(U) writing field: Uz

Time = 0.0024

Reading fields:
    volVectorFields: U

Executing functionObjects
    functionObjects::components components(U) writing field: Ux
    functionObjects::components components(U) writing field: Uy
    functionObjects::components components(U) writing field: Uz

Time = 0.00241

Reading fields:
    volVectorFields: U

Executing functionObjects
    functionObjects::components components(U) writing field: Ux
    functionObjects::components components(U) writing field: Uy
    functionObjects::components components(U) writing field: Uz

Time = 0.00242

Reading fields:
    volVectorFields: U

Executing functionObjects
    functionObjects::components components(U) writing field: Ux
    functionObjects::components components(U) writing field: Uy
    functionObjects::components components(U) writing field: Uz

Time = 0.00243

Reading fields:
    volVectorFields: U

Executing functionObjects
    functionObjects::components components(U) writing field: Ux
    functionObjects::components components(U) writing field: Uy
    functionObjects::components components(U) writing field: Uz

Time = 0.00244

Reading fields:
    volVectorFields: U

Executing functionObjects
    functionObjects::components components(U) writing field: Ux
    functionObjects::components components(U) writing field: Uy
    functionObjects::components components(U) writing field: Uz

Time = 0.00245

Reading fields:
    volVectorFields: U

Executing functionObjects
    functionObjects::components components(U) writing field: Ux
    functionObjects::components components(U) writing field: Uy
    functionObjects::components components(U) writing field: Uz

Time = 0.00246

Reading fields:
    volVectorFields: U

Executing functionObjects
    functionObjects::components components(U) writing field: Ux
    functionObjects::components components(U) writing field: Uy
    functionObjects::components components(U) writing field: Uz

Time = 0.00247

Reading fields:
    volVectorFields: U

Executing functionObjects
    functionObjects::components components(U) writing field: Ux
    functionObjects::components components(U) writing field: Uy
    functionObjects::components components(U) writing field: Uz

Time = 0.00248

Reading fields:
    volVectorFields: U

Executing functionObjects
    functionObjects::components components(U) writing field: Ux
    functionObjects::components components(U) writing field: Uy
    functionObjects::components components(U) writing field: Uz

Time = 0.00249

Reading fields:
    volVectorFields: U

Executing functionObjects
    functionObjects::components components(U) writing field: Ux
    functionObjects::components components(U) writing field: Uy
    functionObjects::components components(U) writing field: Uz

Time = 0.0025

Reading fields:
    volVectorFields: U

Executing functionObjects
    functionObjects::components components(U) writing field: Ux
    functionObjects::components components(U) writing field: Uy
    functionObjects::components components(U) writing field: Uz

Time = 0.00251

Reading fields:
    volVectorFields: U

Executing functionObjects
    functionObjects::components components(U) writing field: Ux
    functionObjects::components components(U) writing field: Uy
    functionObjects::components components(U) writing field: Uz

Time = 0.00252

Reading fields:
    volVectorFields: U

Executing functionObjects
    functionObjects::components components(U) writing field: Ux
    functionObjects::components components(U) writing field: Uy
    functionObjects::components components(U) writing field: Uz

Time = 0.00253

Reading fields:
    volVectorFields: U

Executing functionObjects
    functionObjects::components components(U) writing field: Ux
    functionObjects::components components(U) writing field: Uy
    functionObjects::components components(U) writing field: Uz

Time = 0.00254

Reading fields:
    volVectorFields: U

Executing functionObjects
    functionObjects::components components(U) writing field: Ux
    functionObjects::components components(U) writing field: Uy
    functionObjects::components components(U) writing field: Uz

Time = 0.00255

Reading fields:
    volVectorFields: U

Executing functionObjects
    functionObjects::components components(U) writing field: Ux
    functionObjects::components components(U) writing field: Uy
    functionObjects::components components(U) writing field: Uz

Time = 0.00256

Reading fields:
    volVectorFields: U

Executing functionObjects
    functionObjects::components components(U) writing field: Ux
    functionObjects::components components(U) writing field: Uy
    functionObjects::components components(U) writing field: Uz

Time = 0.00257

Reading fields:
    volVectorFields: U

Executing functionObjects
    functionObjects::components components(U) writing field: Ux
    functionObjects::components components(U) writing field: Uy
    functionObjects::components components(U) writing field: Uz

Time = 0.00258

Reading fields:
    volVectorFields: U

Executing functionObjects
    functionObjects::components components(U) writing field: Ux
    functionObjects::components components(U) writing field: Uy
    functionObjects::components components(U) writing field: Uz

Time = 0.00259

Reading fields:
    volVectorFields: U

Executing functionObjects
    functionObjects::components components(U) writing field: Ux
    functionObjects::components components(U) writing field: Uy
    functionObjects::components components(U) writing field: Uz

Time = 0.0026

Reading fields:
    volVectorFields: U

Executing functionObjects
    functionObjects::components components(U) writing field: Ux
    functionObjects::components components(U) writing field: Uy
    functionObjects::components components(U) writing field: Uz

Time = 0.00261

Reading fields:
    volVectorFields: U

Executing functionObjects
    functionObjects::components components(U) writing field: Ux
    functionObjects::components components(U) writing field: Uy
    functionObjects::components components(U) writing field: Uz

Time = 0.00262

Reading fields:
    volVectorFields: U

Executing functionObjects
    functionObjects::components components(U) writing field: Ux
    functionObjects::components components(U) writing field: Uy
    functionObjects::components components(U) writing field: Uz

Time = 0.00263

Reading fields:
    volVectorFields: U

Executing functionObjects
    functionObjects::components components(U) writing field: Ux
    functionObjects::components components(U) writing field: Uy
    functionObjects::components components(U) writing field: Uz

Time = 0.00264

Reading fields:
    volVectorFields: U

Executing functionObjects
    functionObjects::components components(U) writing field: Ux
    functionObjects::components components(U) writing field: Uy
    functionObjects::components components(U) writing field: Uz

Time = 0.00265

Reading fields:
    volVectorFields: U

Executing functionObjects
    functionObjects::components components(U) writing field: Ux
    functionObjects::components components(U) writing field: Uy
    functionObjects::components components(U) writing field: Uz

Time = 0.00266

Reading fields:
    volVectorFields: U

Executing functionObjects
    functionObjects::components components(U) writing field: Ux
    functionObjects::components components(U) writing field: Uy
    functionObjects::components components(U) writing field: Uz

Time = 0.00267

Reading fields:
    volVectorFields: U

Executing functionObjects
    functionObjects::components components(U) writing field: Ux
    functionObjects::components components(U) writing field: Uy
    functionObjects::components components(U) writing field: Uz

Time = 0.00268

Reading fields:
    volVectorFields: U

Executing functionObjects
    functionObjects::components components(U) writing field: Ux
    functionObjects::components components(U) writing field: Uy
    functionObjects::components components(U) writing field: Uz

Time = 0.00269

Reading fields:
    volVectorFields: U

Executing functionObjects
    functionObjects::components components(U) writing field: Ux
    functionObjects::components components(U) writing field: Uy
    functionObjects::components components(U) writing field: Uz

Time = 0.0027

Reading fields:
    volVectorFields: U

Executing functionObjects
    functionObjects::components components(U) writing field: Ux
    functionObjects::components components(U) writing field: Uy
    functionObjects::components components(U) writing field: Uz

Time = 0.00271

Reading fields:
    volVectorFields: U

Executing functionObjects
    functionObjects::components components(U) writing field: Ux
    functionObjects::components components(U) writing field: Uy
    functionObjects::components components(U) writing field: Uz

Time = 0.00272

Reading fields:
    volVectorFields: U

Executing functionObjects
    functionObjects::components components(U) writing field: Ux
    functionObjects::components components(U) writing field: Uy
    functionObjects::components components(U) writing field: Uz

Time = 0.00273

Reading fields:
    volVectorFields: U

Executing functionObjects
    functionObjects::components components(U) writing field: Ux
    functionObjects::components components(U) writing field: Uy
    functionObjects::components components(U) writing field: Uz

Time = 0.00274

Reading fields:
    volVectorFields: U

Executing functionObjects
    functionObjects::components components(U) writing field: Ux
    functionObjects::components components(U) writing field: Uy
    functionObjects::components components(U) writing field: Uz

Time = 0.00275

Reading fields:
    volVectorFields: U

Executing functionObjects
    functionObjects::components components(U) writing field: Ux
    functionObjects::components components(U) writing field: Uy
    functionObjects::components components(U) writing field: Uz

Time = 0.00276

Reading fields:
    volVectorFields: U

Executing functionObjects
    functionObjects::components components(U) writing field: Ux
    functionObjects::components components(U) writing field: Uy
    functionObjects::components components(U) writing field: Uz

Time = 0.00277

Reading fields:
    volVectorFields: U

Executing functionObjects
    functionObjects::components components(U) writing field: Ux
    functionObjects::components components(U) writing field: Uy
    functionObjects::components components(U) writing field: Uz

Time = 0.00278

Reading fields:
    volVectorFields: U

Executing functionObjects
    functionObjects::components components(U) writing field: Ux
    functionObjects::components components(U) writing field: Uy
    functionObjects::components components(U) writing field: Uz

Time = 0.00279

Reading fields:
    volVectorFields: U

Executing functionObjects
    functionObjects::components components(U) writing field: Ux
    functionObjects::components components(U) writing field: Uy
    functionObjects::components components(U) writing field: Uz

Time = 0.0028

Reading fields:
    volVectorFields: U

Executing functionObjects
    functionObjects::components components(U) writing field: Ux
    functionObjects::components components(U) writing field: Uy
    functionObjects::components components(U) writing field: Uz

Time = 0.00281

Reading fields:
    volVectorFields: U

Executing functionObjects
    functionObjects::components components(U) writing field: Ux
    functionObjects::components components(U) writing field: Uy
    functionObjects::components components(U) writing field: Uz

Time = 0.00282

Reading fields:
    volVectorFields: U

Executing functionObjects
    functionObjects::components components(U) writing field: Ux
    functionObjects::components components(U) writing field: Uy
[...]
    functionObjects::components components(U) writing field: Uy
    functionObjects::components components(U) writing field: Uz

Time = 0.01123

Reading fields:
    volVectorFields: U

Executing functionObjects
    functionObjects::components components(U) writing field: Ux
    functionObjects::components components(U) writing field: Uy
    functionObjects::components components(U) writing field: Uz

Time = 0.01124

Reading fields:
    volVectorFields: U

Executing functionObjects
    functionObjects::components components(U) writing field: Ux
    functionObjects::components components(U) writing field: Uy
    functionObjects::components components(U) writing field: Uz

Time = 0.01125

Reading fields:
    volVectorFields: U

Executing functionObjects
    functionObjects::components components(U) writing field: Ux
    functionObjects::components components(U) writing field: Uy
    functionObjects::components components(U) writing field: Uz

Time = 0.01126

Reading fields:
    volVectorFields: U

Executing functionObjects
    functionObjects::components components(U) writing field: Ux
    functionObjects::components components(U) writing field: Uy
    functionObjects::components components(U) writing field: Uz

Time = 0.01127

Reading fields:
    volVectorFields: U

Executing functionObjects
    functionObjects::components components(U) writing field: Ux
    functionObjects::components components(U) writing field: Uy
    functionObjects::components components(U) writing field: Uz

Time = 0.01128

Reading fields:
    volVectorFields: U

Executing functionObjects
    functionObjects::components components(U) writing field: Ux
    functionObjects::components components(U) writing field: Uy
    functionObjects::components components(U) writing field: Uz

Time = 0.01129

Reading fields:
    volVectorFields: U

Executing functionObjects
    functionObjects::components components(U) writing field: Ux
    functionObjects::components components(U) writing field: Uy
    functionObjects::components components(U) writing field: Uz

Time = 0.0113

Reading fields:
    volVectorFields: U

Executing functionObjects
    functionObjects::components components(U) writing field: Ux
    functionObjects::components components(U) writing field: Uy
    functionObjects::components components(U) writing field: Uz

Time = 0.01131

Reading fields:
    volVectorFields: U

Executing functionObjects
    functionObjects::components components(U) writing field: Ux
    functionObjects::components components(U) writing field: Uy
    functionObjects::components components(U) writing field: Uz

Time = 0.01132

Reading fields:
    volVectorFields: U

Executing functionObjects
    functionObjects::components components(U) writing field: Ux
    functionObjects::components components(U) writing field: Uy
    functionObjects::components components(U) writing field: Uz

Time = 0.01133

Reading fields:
    volVectorFields: U

Executing functionObjects
    functionObjects::components components(U) writing field: Ux
    functionObjects::components components(U) writing field: Uy
    functionObjects::components components(U) writing field: Uz

Time = 0.01134

Reading fields:
    volVectorFields: U

Executing functionObjects
    functionObjects::components components(U) writing field: Ux
    functionObjects::components components(U) writing field: Uy
    functionObjects::components components(U) writing field: Uz

Time = 0.01135

Reading fields:
    volVectorFields: U

Executing functionObjects
    functionObjects::components components(U) writing field: Ux
    functionObjects::components components(U) writing field: Uy
    functionObjects::components components(U) writing field: Uz

Time = 0.01136

Reading fields:
    volVectorFields: U

Executing functionObjects
    functionObjects::components components(U) writing field: Ux
    functionObjects::components components(U) writing field: Uy
    functionObjects::components components(U) writing field: Uz

Time = 0.01137

Reading fields:
    volVectorFields: U

Executing functionObjects
    functionObjects::components components(U) writing field: Ux
    functionObjects::components components(U) writing field: Uy
    functionObjects::components components(U) writing field: Uz

Time = 0.01138

Reading fields:
    volVectorFields: U

Executing functionObjects
    functionObjects::components components(U) writing field: Ux
    functionObjects::components components(U) writing field: Uy
    functionObjects::components components(U) writing field: Uz

Time = 0.01139

Reading fields:
    volVectorFields: U

Executing functionObjects
    functionObjects::components components(U) writing field: Ux
    functionObjects::components components(U) writing field: Uy
    functionObjects::components components(U) writing field: Uz

Time = 0.0114

Reading fields:
    volVectorFields: U

Executing functionObjects
    functionObjects::components components(U) writing field: Ux
    functionObjects::components components(U) writing field: Uy
    functionObjects::components components(U) writing field: Uz

Time = 0.01141

Reading fields:
    volVectorFields: U

Executing functionObjects
    functionObjects::components components(U) writing field: Ux
    functionObjects::components components(U) writing field: Uy
    functionObjects::components components(U) writing field: Uz

Time = 0.01142

Reading fields:
    volVectorFields: U

Executing functionObjects
    functionObjects::components components(U) writing field: Ux
    functionObjects::components components(U) writing field: Uy
    functionObjects::components components(U) writing field: Uz

Time = 0.01143

Reading fields:
    volVectorFields: U

Executing functionObjects
    functionObjects::components components(U) writing field: Ux
    functionObjects::components components(U) writing field: Uy
    functionObjects::components components(U) writing field: Uz

Time = 0.01144

Reading fields:
    volVectorFields: U

Executing functionObjects
    functionObjects::components components(U) writing field: Ux
    functionObjects::components components(U) writing field: Uy
    functionObjects::components components(U) writing field: Uz

Time = 0.01145

Reading fields:
    volVectorFields: U

Executing functionObjects
    functionObjects::components components(U) writing field: Ux
    functionObjects::components components(U) writing field: Uy
    functionObjects::components components(U) writing field: Uz

Time = 0.01146

Reading fields:
    volVectorFields: U

Executing functionObjects
    functionObjects::components components(U) writing field: Ux
    functionObjects::components components(U) writing field: Uy
    functionObjects::components components(U) writing field: Uz

Time = 0.01147

Reading fields:
    volVectorFields: U

Executing functionObjects
    functionObjects::components components(U) writing field: Ux
    functionObjects::components components(U) writing field: Uy
    functionObjects::components components(U) writing field: Uz

Time = 0.01148

Reading fields:
    volVectorFields: U

Executing functionObjects
    functionObjects::components components(U) writing field: Ux
    functionObjects::components components(U) writing field: Uy
    functionObjects::components components(U) writing field: Uz

Time = 0.01149

Reading fields:
    volVectorFields: U

Executing functionObjects
    functionObjects::components components(U) writing field: Ux
    functionObjects::components components(U) writing field: Uy
    functionObjects::components components(U) writing field: Uz

Time = 0.0115

Reading fields:
    volVectorFields: U

Executing functionObjects
    functionObjects::components components(U) writing field: Ux
    functionObjects::components components(U) writing field: Uy
    functionObjects::components components(U) writing field: Uz

Time = 0.01151

Reading fields:
    volVectorFields: U

Executing functionObjects
    functionObjects::components components(U) writing field: Ux
    functionObjects::components components(U) writing field: Uy
    functionObjects::components components(U) writing field: Uz

Time = 0.01152

Reading fields:
    volVectorFields: U

Executing functionObjects
    functionObjects::components components(U) writing field: Ux
    functionObjects::components components(U) writing field: Uy
    functionObjects::components components(U) writing field: Uz

Time = 0.01153

Reading fields:
    volVectorFields: U

Executing functionObjects
    functionObjects::components components(U) writing field: Ux
    functionObjects::components components(U) writing field: Uy
    functionObjects::components components(U) writing field: Uz

Time = 0.01154

Reading fields:
    volVectorFields: U

Executing functionObjects
    functionObjects::components components(U) writing field: Ux
    functionObjects::components components(U) writing field: Uy
    functionObjects::components components(U) writing field: Uz

Time = 0.01155

Reading fields:
    volVectorFields: U

Executing functionObjects
    functionObjects::components components(U) writing field: Ux
    functionObjects::components components(U) writing field: Uy
    functionObjects::components components(U) writing field: Uz

Time = 0.01156

Reading fields:
    volVectorFields: U

Executing functionObjects
    functionObjects::components components(U) writing field: Ux
    functionObjects::components components(U) writing field: Uy
    functionObjects::components components(U) writing field: Uz

Time = 0.01157

Reading fields:
    volVectorFields: U

Executing functionObjects
    functionObjects::components components(U) writing field: Ux
    functionObjects::components components(U) writing field: Uy
    functionObjects::components components(U) writing field: Uz

Time = 0.01158

Reading fields:
    volVectorFields: U

Executing functionObjects
    functionObjects::components components(U) writing field: Ux
    functionObjects::components components(U) writing field: Uy
    functionObjects::components components(U) writing field: Uz

Time = 0.01159

Reading fields:
    volVectorFields: U

Executing functionObjects
    functionObjects::components components(U) writing field: Ux
    functionObjects::components components(U) writing field: Uy
    functionObjects::components components(U) writing field: Uz

Time = 0.0116

Reading fields:
    volVectorFields: U

Executing functionObjects
    functionObjects::components components(U) writing field: Ux
    functionObjects::components components(U) writing field: Uy
    functionObjects::components components(U) writing field: Uz

Time = 0.01161

Reading fields:
    volVectorFields: U

Executing functionObjects
    functionObjects::components components(U) writing field: Ux
    functionObjects::components components(U) writing field: Uy
    functionObjects::components components(U) writing field: Uz

Time = 0.01162

Reading fields:
    volVectorFields: U

Executing functionObjects
    functionObjects::components components(U) writing field: Ux
    functionObjects::components components(U) writing field: Uy
    functionObjects::components components(U) writing field: Uz

Time = 0.01163

Reading fields:
    volVectorFields: U

Executing functionObjects
    functionObjects::components components(U) writing field: Ux
    functionObjects::components components(U) writing field: Uy
    functionObjects::components components(U) writing field: Uz

Time = 0.01164

Reading fields:
    volVectorFields: U

Executing functionObjects
    functionObjects::components components(U) writing field: Ux
    functionObjects::components components(U) writing field: Uy
    functionObjects::components components(U) writing field: Uz

Time = 0.01165

Reading fields:
    volVectorFields: U

Executing functionObjects
    functionObjects::components components(U) writing field: Ux
    functionObjects::components components(U) writing field: Uy
    functionObjects::components components(U) writing field: Uz

Time = 0.01166

Reading fields:
    volVectorFields: U

Executing functionObjects
    functionObjects::components components(U) writing field: Ux
    functionObjects::components components(U) writing field: Uy
    functionObjects::components components(U) writing field: Uz

Time = 0.01167

Reading fields:
    volVectorFields: U

Executing functionObjects
    functionObjects::components components(U) writing field: Ux
    functionObjects::components components(U) writing field: Uy
    functionObjects::components components(U) writing field: Uz

Time = 0.01168

Reading fields:
    volVectorFields: U

Executing functionObjects
    functionObjects::components components(U) writing field: Ux
    functionObjects::components components(U) writing field: Uy
    functionObjects::components components(U) writing field: Uz

Time = 0.01169

Reading fields:
    volVectorFields: U

Executing functionObjects
    functionObjects::components components(U) writing field: Ux
    functionObjects::components components(U) writing field: Uy
    functionObjects::components components(U) writing field: Uz

Time = 0.0117

Reading fields:
    volVectorFields: U

Executing functionObjects
    functionObjects::components components(U) writing field: Ux
    functionObjects::components components(U) writing field: Uy
    functionObjects::components components(U) writing field: Uz

Time = 0.01171

Reading fields:
    volVectorFields: U

Executing functionObjects
    functionObjects::components components(U) writing field: Ux
    functionObjects::components components(U) writing field: Uy
    functionObjects::components components(U) writing field: Uz

Time = 0.01172

Reading fields:
    volVectorFields: U

Executing functionObjects
    functionObjects::components components(U) writing field: Ux
    functionObjects::components components(U) writing field: Uy
    functionObjects::components components(U) writing field: Uz

Time = 0.01173

Reading fields:
    volVectorFields: U

Executing functionObjects
    functionObjects::components components(U) writing field: Ux
    functionObjects::components components(U) writing field: Uy
    functionObjects::components components(U) writing field: Uz

Time = 0.01174

Reading fields:
    volVectorFields: U

Executing functionObjects
    functionObjects::components components(U) writing field: Ux
    functionObjects::components components(U) writing field: Uy
    functionObjects::components components(U) writing field: Uz

Time = 0.01175

Reading fields:
    volVectorFields: U

Executing functionObjects
    functionObjects::components components(U) writing field: Ux
    functionObjects::components components(U) writing field: Uy
    functionObjects::components components(U) writing field: Uz

Time = 0.01176

Reading fields:
    volVectorFields: U

Executing functionObjects
    functionObjects::components components(U) writing field: Ux
    functionObjects::components components(U) writing field: Uy
    functionObjects::components components(U) writing field: Uz

Time = 0.01177

Reading fields:
    volVectorFields: U

Executing functionObjects
    functionObjects::components components(U) writing field: Ux
    functionObjects::components components(U) writing field: Uy
    functionObjects::components components(U) writing field: Uz

Time = 0.01178

Reading fields:
    volVectorFields: U

Executing functionObjects
    functionObjects::components components(U) writing field: Ux
    functionObjects::components components(U) writing field: Uy
    functionObjects::components components(U) writing field: Uz

Time = 0.01179

Reading fields:
    volVectorFields: U

Executing functionObjects
    functionObjects::components components(U) writing field: Ux
    functionObjects::components components(U) writing field: Uy
    functionObjects::components components(U) writing field: Uz

Time = 0.0118

Reading fields:
    volVectorFields: U

Executing functionObjects
    functionObjects::components components(U) writing field: Ux
    functionObjects::components components(U) writing field: Uy
    functionObjects::components components(U) writing field: Uz

Time = 0.01181

Reading fields:
    volVectorFields: U

Executing functionObjects
    functionObjects::components components(U) writing field: Ux
    functionObjects::components components(U) writing field: Uy
    functionObjects::components components(U) writing field: Uz

Time = 0.01182

Reading fields:
    volVectorFields: U

Executing functionObjects
    functionObjects::components components(U) writing field: Ux
    functionObjects::components components(U) writing field: Uy
    functionObjects::components components(U) writing field: Uz

Time = 0.01183

Reading fields:
    volVectorFields: U

Executing functionObjects
    functionObjects::components components(U) writing field: Ux
    functionObjects::components components(U) writing field: Uy
    functionObjects::components components(U) writing field: Uz

Time = 0.01184

Reading fields:
    volVectorFields: U

Executing functionObjects
    functionObjects::components components(U) writing field: Ux
    functionObjects::components components(U) writing field: Uy
    functionObjects::components components(U) writing field: Uz

Time = 0.01185

Reading fields:
    volVectorFields: U

Executing functionObjects
    functionObjects::components components(U) writing field: Ux
    functionObjects::components components(U) writing field: Uy
    functionObjects::components components(U) writing field: Uz

Time = 0.01186

Reading fields:
    volVectorFields: U

Executing functionObjects
    functionObjects::components components(U) writing field: Ux
    functionObjects::components components(U) writing field: Uy
    functionObjects::components components(U) writing field: Uz

Time = 0.01187

Reading fields:
    volVectorFields: U

Executing functionObjects
    functionObjects::components components(U) writing field: Ux
    functionObjects::components components(U) writing field: Uy
    functionObjects::components components(U) writing field: Uz

Time = 0.01188

Reading fields:
    volVectorFields: U

Executing functionObjects
    functionObjects::components components(U) writing field: Ux
    functionObjects::components components(U) writing field: Uy
    functionObjects::components components(U) writing field: Uz

Time = 0.01189

Reading fields:
    volVectorFields: U

Executing functionObjects
    functionObjects::components components(U) writing field: Ux
    functionObjects::components components(U) writing field: Uy
    functionObjects::components components(U) writing field: Uz

Time = 0.0119

Reading fields:
    volVectorFields: U

Executing functionObjects
    functionObjects::components components(U) writing field: Ux
    functionObjects::components components(U) writing field: Uy
    functionObjects::components components(U) writing field: Uz

Time = 0.01191

Reading fields:
    volVectorFields: U

Executing functionObjects
    functionObjects::components components(U) writing field: Ux
    functionObjects::components components(U) writing field: Uy
    functionObjects::components components(U) writing field: Uz

Time = 0.01192

Reading fields:
    volVectorFields: U

Executing functionObjects
    functionObjects::components components(U) writing field: Ux
    functionObjects::components components(U) writing field: Uy
    functionObjects::components components(U) writing field: Uz

Time = 0.01193

Reading fields:
    volVectorFields: U

Executing functionObjects
    functionObjects::components components(U) writing field: Ux
    functionObjects::components components(U) writing field: Uy
    functionObjects::components components(U) writing field: Uz

Time = 0.01194

Reading fields:
    volVectorFields: U

Executing functionObjects
    functionObjects::components components(U) writing field: Ux
    functionObjects::components components(U) writing field: Uy
    functionObjects::components components(U) writing field: Uz

Time = 0.01195
