pwd=/lustre/home/acct-medgm/medgm/05-NSCBC/Workspace/run/sineWaveDampingLusgsFoam
About to execute the case
/*---------------------------------------------------------------------------*\
| =========                 |                                                 |
| \\      /  F ield         | OpenFOAM: The Open Source CFD Toolbox           |
|  \\    /   O peration     | Version:  v2006                                 |
|   \\  /    A nd           | Website:  www.openfoam.com                      |
|    \\/     M anipulation  |                                                 |
\*---------------------------------------------------------------------------*/
Build  : _b45f8f6f58-20200629 OPENFOAM=2006
Arch   : "LSB;label=32;scalar=64"
Exec   : /home/ofuser/OpenFOAM/ofuser-v2006/platforms/linux64GccDPInt32Opt/bin/myLusgsFoam -parallel
Date   : Feb 14 2022
Time   : 18:53:48
Host   : cas603.pi.sjtu.edu.cn
PID    : 323939
I/O    : collated (maxThreadFileBufferSize 0)
         Threading not activated since maxThreadFileBufferSize = 0.
         Writing may run slowly for large file sizes.
Case   : /lustre/home/acct-medgm/medgm/05-NSCBC/Workspace/run/sineWaveDampingLusgsFoam
nProcs : 4
Hosts  :
(
    (cas603.pi.sjtu.edu.cn 4)
)
Pstream initialized with:
    floatTransfer      : 0
    nProcsSimpleSum    : 0
    commsType          : nonBlocking
    polling iterations : 0
trapFpe: Floating point exception trapping enabled (FOAM_SIGFPE).
fileModificationChecking : Monitoring run-time modified files using timeStamp (fileModificationSkew 5, maxFileModificationPolls 20)
allowSystemOperations : Allowing user-supplied system call operations

// * * * * * * * * * * * * * * * * * * * * * * * * * * * * * * * * * * * * * //
Create time

Create mesh for time = 0

No MRF models present

Reading thermophysical properties

Selecting thermodynamics package 
{
    type            hePsiThermo;
    mixture         pureMixture;
    transport       sutherland;
    thermo          hConst;
    equationOfState perfectGas;
    specie          specie;
    energy          sensibleEnthalpy;
}

Reading field rho

Reading field U

Using dynamicCode for patch inlet on field U at line 26 in "/lustre/home/acct-medgm/medgm/05-NSCBC/Workspace/run/sineWaveDampingLusgsFoam/processors4/0/U.boundaryField.inlet"
Creating turbulence model

Selecting turbulence model type laminar
Selecting laminar stress model Stokes
Using LTS

Starting time loop

fieldAverage fieldAverage:
    Restarting averaging for fields:
        U: starting averaging at time 0
        p: starting averaging at time 0

Mean and max Courant Numbers = 0.2785791705801725 0.2785792705804961
Flow time scale min/max = 2.153785523056815e-06, 2.156882497925265e-06
Smoothed flow time scale min/max = 2.153785523056815e-06, 2.156882497925265e-06

 Time = 2e-06
LUSGS: iteration 1
LUSGS:  Solving for rho,  Initial residual = 0.0004706360176750635, Final residual = 0.0004395357603667396, No Iterations 1
LUSGS:  Solving for rhoU, Initial residual = 0.0004785192567289626, Final residual = 0.01978804111732946, No Iterations 1
LUSGS:  Solving for rhoE, Initial residual = 141.8550609778578, Final residual = 132.500415011529, No Iterations 1
LUSGS: converged in 1 iterations.
    ExecutionTime = 0.26 s

fieldAverage fieldAverage:
    Reading/initialising field UMean
    Reading/initialising field pMean

fieldAverage fieldAverage write:
    Calculating averages

Mean and max Courant Numbers = 0.2785792536665649 0.2785792705804961
Flow time scale min/max = 2.153785523056815e-06, 2.154036312007217e-06
Smoothed flow time scale min/max = 2.153785523056815e-06, 2.154036312007217e-06

 Time = 4e-06
LUSGS: iteration 1
LUSGS:  Solving for rho,  Initial residual = 0.0002198390021570541, Final residual = 0.000220924628151309, No Iterations 1
LUSGS:  Solving for rhoU, Initial residual = 0.04607213054619393, Final residual = 0.05300068118029619, No Iterations 1
LUSGS:  Solving for rhoE, Initial residual = 66.30784016095846, Final residual = 66.64106715587623, No Iterations 1
LUSGS: converged in 1 iterations.
    ExecutionTime = 0.26 s

fieldAverage fieldAverage write:
    Calculating averages

Mean and max Courant Numbers = 0.278579232583404 0.2785792705804961
Flow time scale min/max = 2.153785523056815e-06, 2.154214577312745e-06
Smoothed flow time scale min/max = 2.153785523056815e-06, 2.154214577312745e-06

 Time = 6e-06
LUSGS: iteration 1
LUSGS:  Solving for rho,  Initial residual = 0.0001319349200154138, Final residual = 0.0001487132091076127, No Iterations 1
LUSGS:  Solving for rhoU, Initial residual = 0.07353538362660414, Final residual = 0.07505769550984884, No Iterations 1
LUSGS:  Solving for rhoE, Initial residual = 39.78430231215269, Final residual = 44.84968377538064, No Iterations 1
LUSGS: converged in 1 iterations.
    ExecutionTime = 0.26 s

fieldAverage fieldAverage write:
    Calculating averages

Mean and max Courant Numbers = 0.2785792071543257 0.2785792705804961
Flow time scale min/max = 2.153785523056815e-06, 2.154512155304562e-06
Smoothed flow time scale min/max = 2.153785523056815e-06, 2.154512155304562e-06

 Time = 8e-06
LUSGS: iteration 1
LUSGS:  Solving for rho,  Initial residual = 0.0002332656833977222, Final residual = 0.0002291843383661975, No Iterations 1
LUSGS:  Solving for rhoU, Initial residual = 0.08353938217492993, Final residual = 0.08282609340456798, No Iterations 1
LUSGS:  Solving for rhoE, Initial residual = 70.33214269085911, Final residual = 69.1082191126233, No Iterations 1
LUSGS: converged in 1 iterations.
    ExecutionTime = 0.26 s

fieldAverage fieldAverage write:
    Calculating averages

Mean and max Courant Numbers = 0.2785791798538397 0.2785792705804961
Flow time scale min/max = 2.153785523056815e-06, 2.154798401845097e-06
Smoothed flow time scale min/max = 2.153785523056815e-06, 2.154798401845097e-06

 Time = 9.999999999999999e-06
LUSGS: iteration 1
LUSGS:  Solving for rho,  Initial residual = 0.000296042592510802, Final residual = 0.0002763255814828619, No Iterations 1
LUSGS:  Solving for rhoU, Initial residual = 0.08057438050514544, Final residual = 0.07873179824104262, No Iterations 1
LUSGS:  Solving for rhoE, Initial residual = 89.25478277098432, Final residual = 83.31784015202709, No Iterations 1
LUSGS: converged in 1 iterations.
    ExecutionTime = 0.26 s

fieldAverage fieldAverage write:
    Calculating averages

Mean and max Courant Numbers = 0.2785791536212534 0.2785792705804961
Flow time scale min/max = 2.153785523056815e-06, 2.155011173289595e-06
Smoothed flow time scale min/max = 2.153785523056815e-06, 2.155011173289595e-06

 Time = 1.2e-05
LUSGS: iteration 1
LUSGS:  Solving for rho,  Initial residual = 0.0003282410009185749, Final residual = 0.0002955349477045634, No Iterations 1
LUSGS:  Solving for rhoU, Initial residual = 0.06852888130495514, Final residual = 0.06617790790157213, No Iterations 1
LUSGS:  Solving for rhoE, Initial residual = 98.95909975241544, Final residual = 89.10724977891326, No Iterations 1
LUSGS: converged in 1 iterations.
    ExecutionTime = 0.26 s

fieldAverage fieldAverage write:
    Calculating averages

Mean and max Courant Numbers = 0.2785791308166378 0.2785792705804961
Flow time scale min/max = 2.153785523056815e-06, 2.155109961241791e-06
Smoothed flow time scale min/max = 2.153785523056815e-06, 2.155109961241791e-06

 Time = 1.4e-05
LUSGS: iteration 1
LUSGS:  Solving for rho,  Initial residual = 0.0003390100033839516, Final residual = 0.0003203752239144765, No Iterations 1
LUSGS:  Solving for rhoU, Initial residual = 0.05639021036316394, Final residual = 0.0640725267404543, No Iterations 1
LUSGS:  Solving for rhoE, Initial residual = 102.2340703534155, Final residual = 96.62207352934881, No Iterations 1
LUSGS: converged in 1 iterations.
    ExecutionTime = 0.27 s

fieldAverage fieldAverage write:
    Calculating averages

Mean and max Courant Numbers = 0.2785791129832176 0.2785792705804961
Flow time scale min/max = 2.153785523056815e-06, 2.155078328052655e-06
Smoothed flow time scale min/max = 2.153785523056815e-06, 2.155078328052655e-06

 Time = 1.6e-05
LUSGS: iteration 1
LUSGS:  Solving for rho,  Initial residual = 0.0003525062378880411, Final residual = 0.0003225794577473434, No Iterations 1
LUSGS:  Solving for rhoU, Initial residual = 0.09030627072120619, Final residual = 0.09040401220420179, No Iterations 1
LUSGS:  Solving for rhoE, Initial residual = 106.3307650604044, Final residual = 97.30971982235336, No Iterations 1
LUSGS: converged in 1 iterations.
    ExecutionTime = 0.27 s

fieldAverage fieldAverage write:
    Calculating averages

Mean and max Courant Numbers = 0.2785791011573173 0.2785792705804961
Flow time scale min/max = 2.153785523056815e-06, 2.155028774406593e-06
Smoothed flow time scale min/max = 2.153785523056815e-06, 2.155028774406593e-06

 Time = 1.8e-05
LUSGS: iteration 1
LUSGS:  Solving for rho,  Initial residual = 0.0003177534864253535, Final residual = 0.0003092194040728374, No Iterations 1
LUSGS:  Solving for rhoU, Initial residual = 0.1158808988705969, Final residual = 0.1156203863247258, No Iterations 1
LUSGS:  Solving for rhoE, Initial residual = 95.87977642030502, Final residual = 93.30071842948065, No Iterations 1
LUSGS: converged in 1 iterations.
    ExecutionTime = 0.27 s

fieldAverage fieldAverage write:
    Calculating averages

Mean and max Courant Numbers = 0.2785790953728441 0.2785792705804961
Flow time scale min/max = 2.153785523056815e-06, 2.154993330199931e-06
Smoothed flow time scale min/max = 2.153785523056815e-06, 2.154993330199931e-06

 Time = 2e-05
LUSGS: iteration 1
LUSGS:  Solving for rho,  Initial residual = 0.0003302981021725824, Final residual = 0.0003301499488145224, No Iterations 1
LUSGS:  Solving for rhoU, Initial residual = 0.1348551454590085, Final residual = 0.1328879542154167, No Iterations 1
LUSGS:  Solving for rhoE, Initial residual = 99.6659489756765, Final residual = 99.62248745325024, No Iterations 1
LUSGS: converged in 1 iterations.
    ExecutionTime = 0.28 s

fieldAverage fieldAverage write:
    Calculating averages

Mean and max Courant Numbers = 0.2785790950186885 0.2785792705804961
Flow time scale min/max = 2.153785523056815e-06, 2.155068633767881e-06
Smoothed flow time scale min/max = 2.153785523056815e-06, 2.155068633767881e-06

 Time = 2.2e-05
LUSGS: iteration 1
LUSGS:  Solving for rho,  Initial residual = 0.0003450576987718507, Final residual = 0.0003543805433887571, No Iterations 1
LUSGS:  Solving for rhoU, Initial residual = 0.1410605626338758, Final residual = 0.1366663263021712, No Iterations 1
LUSGS:  Solving for rhoE, Initial residual = 104.1184148125239, Final residual = 106.9373178121007, No Iterations 1
LUSGS: converged in 1 iterations.
    ExecutionTime = 0.28 s

fieldAverage fieldAverage write:
    Calculating averages

Mean and max Courant Numbers = 0.278579098910231 0.2785936483640029
Flow time scale min/max = 2.153674369546489e-06, 2.155043034978253e-06
Smoothed flow time scale min/max = 2.153674369546489e-06, 2.155043034978253e-06

 Time = 2.4e-05
LUSGS: iteration 1
LUSGS:  Solving for rho,  Initial residual = 0.0003873354280830802, Final residual = 0.0004000641333784132, No Iterations 1
LUSGS:  Solving for rhoU, Initial residual = 0.1471238057497888, Final residual = 0.1473264027771556, No Iterations 1
LUSGS:  Solving for rhoE, Initial residual = 116.8426169125216, Final residual = 120.682101929393, No Iterations 1
LUSGS: converged in 1 iterations.
    ExecutionTime = 0.28 s

fieldAverage fieldAverage write:
    Calculating averages

Mean and max Courant Numbers = 0.278579105636345 0.2786123973313689
Flow time scale min/max = 2.153529439992534e-06, 2.155068724487185e-06
Smoothed flow time scale min/max = 2.153529439992534e-06, 2.155068724487185e-06

 Time = 2.600000000000001e-05
LUSGS: iteration 1
LUSGS:  Solving for rho,  Initial residual = 0.0004389644350049625, Final residual = 0.0004322565891379307, No Iterations 1
LUSGS:  Solving for rhoU, Initial residual = 0.1538891850097803, Final residual = 0.1510220155406325, No Iterations 1
LUSGS:  Solving for rhoE, Initial residual = 132.4045774478539, Final residual = 130.3885503453421, No Iterations 1
LUSGS: converged in 1 iterations.
    ExecutionTime = 0.28 s

fieldAverage fieldAverage write:
    Calculating averages

Mean and max Courant Numbers = 0.2785791137056358 0.2786379252995357
Flow time scale min/max = 2.153332140106197e-06, 2.155030822390782e-06
Smoothed flow time scale min/max = 2.153332140106197e-06, 2.155030822390782e-06

 Time = 2.800000000000001e-05
LUSGS: iteration 1
LUSGS:  Solving for rho,  Initial residual = 0.0004901638512330372, Final residual = 0.0004809927448189643, No Iterations 1
LUSGS:  Solving for rhoU, Initial residual = 0.1525028724363365, Final residual = 0.1503569931134872, No Iterations 1
LUSGS:  Solving for rhoE, Initial residual = 147.8352607261522, Final residual = 145.0803578181741, No Iterations 1
LUSGS: converged in 1 iterations.
    ExecutionTime = 0.29 s

fieldAverage fieldAverage write:
    Calculating averages

Mean and max Courant Numbers = 0.2785791215489177 0.2786594087890932
Flow time scale min/max = 2.153166127091432e-06, 2.155083210617306e-06
Smoothed flow time scale min/max = 2.153166127091432e-06, 2.155083210617306e-06

 Time = 3.000000000000001e-05
LUSGS: iteration 1
LUSGS:  Solving for rho,  Initial residual = 0.00052140992043497, Final residual = 0.0005004847463359124, No Iterations 1
LUSGS:  Solving for rhoU, Initial residual = 0.143210798700812, Final residual = 0.1382165269770606, No Iterations 1
LUSGS:  Solving for rhoE, Initial residual = 157.2513966786398, Final residual = 150.9577543221177, No Iterations 1
LUSGS: converged in 1 iterations.
    ExecutionTime = 0.29 s

fieldAverage fieldAverage write:
    Calculating averages

Mean and max Courant Numbers = 0.2785791281944408 0.2786668894570757
Flow time scale min/max = 2.153108326464529e-06, 2.155060175862768e-06
Smoothed flow time scale min/max = 2.153108326464529e-06, 2.155060175862768e-06

 Time = 3.200000000000001e-05
LUSGS: iteration 1
LUSGS:  Solving for rho,  Initial residual = 0.0005291142584865503, Final residual = 0.0005009390055808102, No Iterations 1
LUSGS:  Solving for rhoU, Initial residual = 0.1585703374496937, Final residual = 0.1628504972956022, No Iterations 1
LUSGS:  Solving for rhoE, Initial residual = 159.5764311245873, Final residual = 151.0951463536896, No Iterations 1
LUSGS: converged in 1 iterations.
    ExecutionTime = 0.29 s

fieldAverage fieldAverage write:
    Calculating averages

Mean and max Courant Numbers = 0.2785791327076254 0.2786602883918829
Flow time scale min/max = 2.153159330533002e-06, 2.15508088635305e-06
Smoothed flow time scale min/max = 2.153159330533002e-06, 2.15508088635305e-06

 Time = 3.400000000000001e-05
LUSGS: iteration 1
LUSGS:  Solving for rho,  Initial residual = 0.0004942912779865964, Final residual = 0.000464695210506831, No Iterations 1
LUSGS:  Solving for rhoU, Initial residual = 0.1888765448792718, Final residual = 0.1838174242865095, No Iterations 1
LUSGS:  Solving for rhoE, Initial residual = 149.0830221552516, Final residual = 140.2353645697612, No Iterations 1
LUSGS: converged in 1 iterations.
    ExecutionTime = 0.29 s

fieldAverage fieldAverage write:
    Calculating averages

Mean and max Courant Numbers = 0.2785791348251058 0.2786625125876067
Flow time scale min/max = 2.153142144698671e-06, 2.15505046045311e-06
Smoothed flow time scale min/max = 2.153142144698671e-06, 2.15505046045311e-06

 Time = 3.600000000000001e-05
LUSGS: iteration 1
LUSGS:  Solving for rho,  Initial residual = 0.0005011930960377743, Final residual = 0.000513240793147833, No Iterations 1
LUSGS:  Solving for rhoU, Initial residual = 0.2035560984222303, Final residual = 0.1980981014069436, No Iterations 1
LUSGS:  Solving for rhoE, Initial residual = 151.2439273183463, Final residual = 154.8799441553768, No Iterations 1
LUSGS: converged in 1 iterations.
    ExecutionTime = 0.29 s

fieldAverage fieldAverage write:
    Calculating averages

Mean and max Courant Numbers = 0.2785791347122687 0.2786766115324253
Flow time scale min/max = 2.153033211867467e-06, 2.1550903860842e-06
Smoothed flow time scale min/max = 2.153033211867467e-06, 2.1550903860842e-06

 Time = 3.800000000000001e-05
LUSGS: iteration 1
LUSGS:  Solving for rho,  Initial residual = 0.0005443129123840701, Final residual = 0.0005490205971601562, No Iterations 1
LUSGS:  Solving for rhoU, Initial residual = 0.2082511459565039, Final residual = 0.2004490229688039, No Iterations 1
LUSGS:  Solving for rhoE, Initial residual = 164.2373461601194, Final residual = 165.6422347392457, No Iterations 1
LUSGS: converged in 1 iterations.
    ExecutionTime = 0.29 s

fieldAverage fieldAverage write:
    Calculating averages

Mean and max Courant Numbers = 0.2785791328920569 0.2786923822246742
Flow time scale min/max = 2.152911375655386e-06, 2.155065489535011e-06
Smoothed flow time scale min/max = 2.152911375655386e-06, 2.155065489535011e-06

 Time = 4.000000000000001e-05
LUSGS: iteration 1
LUSGS:  Solving for rho,  Initial residual = 0.0006192518501518647, Final residual = 0.0006210860496464243, No Iterations 1
LUSGS:  Solving for rhoU, Initial residual = 0.2017574336825897, Final residual = 0.2025206198954794, No Iterations 1
LUSGS:  Solving for rhoE, Initial residual = 186.8000668618235, Final residual = 187.3917475020054, No Iterations 1
LUSGS: converged in 1 iterations.
    ExecutionTime = 0.3 s

fieldAverage fieldAverage write:
    Calculating averages

Mean and max Courant Numbers = 0.2785791301317112 0.2786914488995688
Flow time scale min/max = 2.15291858565858e-06, 2.15509220961867e-06
Smoothed flow time scale min/max = 2.15291858565858e-06, 2.15509220961867e-06

 Time = 4.200000000000001e-05
LUSGS: iteration 1
LUSGS:  Solving for rho,  Initial residual = 0.000670666709887832, Final residual = 0.0006555152976447129, No Iterations 1
LUSGS:  Solving for rhoU, Initial residual = 0.2194140901686466, Final residual = 0.2153780361143951, No Iterations 1
LUSGS:  Solving for rhoE, Initial residual = 202.3532235434438, Final residual = 197.7826407581146, No Iterations 1
LUSGS: converged in 1 iterations.
    ExecutionTime = 0.3 s

fieldAverage fieldAverage write:
    Calculating averages

Mean and max Courant Numbers = 0.278579127247218 0.2786983341058667
Flow time scale min/max = 2.152865398083374e-06, 2.155059619105216e-06
Smoothed flow time scale min/max = 2.152865398083374e-06, 2.155059619105216e-06

 Time = 4.400000000000001e-05
LUSGS: iteration 1
LUSGS:  Solving for rho,  Initial residual = 0.0006695736132118243, Final residual = 0.0006690763604773811, No Iterations 1
LUSGS:  Solving for rhoU, Initial residual = 0.2249891343616398, Final residual = 0.218777045662926, No Iterations 1
LUSGS:  Solving for rhoE, Initial residual = 202.0294270928742, Final residual = 201.8737965700905, No Iterations 1
LUSGS: converged in 1 iterations.
    ExecutionTime = 0.3 s

fieldAverage fieldAverage write:
    Calculating averages

Mean and max Courant Numbers = 0.2785791250969476 0.2786975351067973
Flow time scale min/max = 2.152871570141727e-06, 2.155102014925442e-06
Smoothed flow time scale min/max = 2.152871570141727e-06, 2.155102014925442e-06

 Time = 4.600000000000001e-05
LUSGS: iteration 1
LUSGS:  Solving for rho,  Initial residual = 0.0007186079318079838, Final residual = 0.0006980618613998414, No Iterations 1
LUSGS:  Solving for rhoU, Initial residual = 0.237492327220043, Final residual = 0.2339630350617194, No Iterations 1
LUSGS:  Solving for rhoE, Initial residual = 216.7993083717274, Final residual = 210.613602550994, No Iterations 1
LUSGS: converged in 1 iterations.
    ExecutionTime = 0.3 s

fieldAverage fieldAverage write:
    Calculating averages

Mean and max Courant Numbers = 0.2785791242467971 0.2787183635165792
Flow time scale min/max = 2.152710687698587e-06, 2.155068753480583e-06
Smoothed flow time scale min/max = 2.152710687698587e-06, 2.155068753480583e-06

 Time = 4.800000000000001e-05
LUSGS: iteration 1
LUSGS:  Solving for rho,  Initial residual = 0.0007310406074562356, Final residual = 0.0006966556632654573, No Iterations 1
LUSGS:  Solving for rhoU, Initial residual = 0.2545523444791054, Final residual = 0.2455724654509962, No Iterations 1
LUSGS:  Solving for rhoE, Initial residual = 220.5401109290515, Final residual = 210.1998151236372, No Iterations 1
LUSGS: converged in 1 iterations.
    ExecutionTime = 0.3 s

fieldAverage fieldAverage write:
    Calculating averages

Mean and max Courant Numbers = 0.2785791250021991 0.2787230880651737
Flow time scale min/max = 2.152674197767579e-06, 2.155105944272638e-06
Smoothed flow time scale min/max = 2.152674197767579e-06, 2.155105944272638e-06

 Time = 5.000000000000002e-05
LUSGS: iteration 1
LUSGS:  Solving for rho,  Initial residual = 0.0007452904960844705, Final residual = 0.0007541378316098243, No Iterations 1
LUSGS:  Solving for rhoU, Initial residual = 0.2740892015273886, Final residual = 0.2678512337508561, No Iterations 1
LUSGS:  Solving for rhoE, Initial residual = 224.9149685574523, Final residual = 227.578160604223, No Iterations 1
LUSGS: converged in 1 iterations.
    ExecutionTime = 0.3 s

fieldAverage fieldAverage write:
    Calculating averages

Mean and max Courant Numbers = 0.2785791273271552 0.2787260348310272
Flow time scale min/max = 2.152651439122792e-06, 2.155082805011891e-06
Smoothed flow time scale min/max = 2.152651439122792e-06, 2.155082805011891e-06

 Time = 5.200000000000002e-05
LUSGS: iteration 1
LUSGS:  Solving for rho,  Initial residual = 0.0007890119208083118, Final residual = 0.0007703547452884106, No Iterations 1
LUSGS:  Solving for rhoU, Initial residual = 0.2898013627844296, Final residual = 0.2772552502212421, No Iterations 1
LUSGS:  Solving for rhoE, Initial residual = 238.1055235162706, Final residual = 232.4682739120613, No Iterations 1
LUSGS: converged in 1 iterations.
    ExecutionTime = 0.31 s

fieldAverage fieldAverage write:
    Calculating averages

Mean and max Courant Numbers = 0.2785791308928571 0.2787315702748205
Flow time scale min/max = 2.152608688740996e-06, 2.155114441717899e-06
Smoothed flow time scale min/max = 2.152608688740996e-06, 2.155114441717899e-06

 Time = 5.400000000000002e-05
LUSGS: iteration 1
LUSGS:  Solving for rho,  Initial residual = 0.0008315359039593097, Final residual = 0.0008347793886866441, No Iterations 1
LUSGS:  Solving for rhoU, Initial residual = 0.292657546614278, Final residual = 0.2857394724610607, No Iterations 1
LUSGS:  Solving for rhoE, Initial residual = 250.8962054533801, Final residual = 251.8765016946082, No Iterations 1
LUSGS: converged in 1 iterations.
    ExecutionTime = 0.31 s

fieldAverage fieldAverage write:
    Calculating averages

Mean and max Courant Numbers = 0.278579135209597 0.2787419018688363
Flow time scale min/max = 2.152528902103616e-06, 2.155097517939794e-06
Smoothed flow time scale min/max = 2.152528902103616e-06, 2.155097517939794e-06

 Time = 5.600000000000002e-05
LUSGS: iteration 1
LUSGS:  Solving for rho,  Initial residual = 0.000907830467963729, Final residual = 0.0008701854645967497, No Iterations 1
LUSGS:  Solving for rhoU, Initial residual = 0.2995350689295499, Final residual = 0.2920671614000783, No Iterations 1
LUSGS:  Solving for rhoE, Initial residual = 273.8757387630134, Final residual = 262.5576162234499, No Iterations 1
LUSGS: converged in 1 iterations.
    ExecutionTime = 0.31 s

fieldAverage fieldAverage write:
    Calculating averages

Mean and max Courant Numbers = 0.2785791397676883 0.2787523863361672
Flow time scale min/max = 2.152447940934998e-06, 2.155120238291527e-06
Smoothed flow time scale min/max = 2.152447940934998e-06, 2.155120238291527e-06

 Time = 5.800000000000002e-05
LUSGS: iteration 1
LUSGS:  Solving for rho,  Initial residual = 0.0009213955849785265, Final residual = 0.0009136340733540745, No Iterations 1
LUSGS:  Solving for rhoU, Initial residual = 0.3111157661862823, Final residual = 0.3051414381656801, No Iterations 1
LUSGS:  Solving for rhoE, Initial residual = 278.0182369581955, Final residual = 275.6826081248478, No Iterations 1
LUSGS: converged in 1 iterations.
    ExecutionTime = 0.31 s

fieldAverage fieldAverage write:
    Calculating averages

Mean and max Courant Numbers = 0.2785791440240696 0.2787499314170487
Flow time scale min/max = 2.152466897300564e-06, 2.155113343166202e-06
Smoothed flow time scale min/max = 2.152466897300564e-06, 2.155113343166202e-06

 Time = 6.000000000000002e-05
LUSGS: iteration 1
LUSGS:  Solving for rho,  Initial residual = 0.0009634226553931623, Final residual = 0.0009407522710187256, No Iterations 1
LUSGS:  Solving for rhoU, Initial residual = 0.3303800407206508, Final residual = 0.3173738428417384, No Iterations 1
LUSGS:  Solving for rhoE, Initial residual = 290.697010067817, Final residual = 283.8599996835709, No Iterations 1
LUSGS: converged in 1 iterations.
    ExecutionTime = 0.31 s

fieldAverage fieldAverage write:
    Calculating averages

Mean and max Courant Numbers = 0.2785791477657998 0.2787610216621929
Flow time scale min/max = 2.152381263428894e-06, 2.155128688632087e-06
Smoothed flow time scale min/max = 2.152381263428894e-06, 2.155128688632087e-06

 Time = 6.200000000000002e-05
LUSGS: iteration 1
LUSGS:  Solving for rho,  Initial residual = 0.0009753990548575504, Final residual = 0.0009693365948096022, No Iterations 1
LUSGS:  Solving for rhoU, Initial residual = 0.3494472137282187, Final residual = 0.34352008637366, No Iterations 1
LUSGS:  Solving for rhoE, Initial residual = 294.3065494403513, Final residual = 292.4893236933333, No Iterations 1
LUSGS: converged in 1 iterations.
    ExecutionTime = 0.31 s

fieldAverage fieldAverage write:
    Calculating averages

Mean and max Courant Numbers = 0.2785791506229699 0.2787630833673222
Flow time scale min/max = 2.152365344622725e-06, 2.155128349534342e-06
Smoothed flow time scale min/max = 2.152365344622725e-06, 2.155128349534342e-06

 Time = 6.400000000000001e-05
LUSGS: iteration 1
LUSGS:  Solving for rho,  Initial residual = 0.00104083103405081, Final residual = 0.0009953800386045264, No Iterations 1
LUSGS:  Solving for rhoU, Initial residual = 0.3646568058307824, Final residual = 0.3466609972807789, No Iterations 1
LUSGS:  Solving for rhoE, Initial residual = 314.0048419000623, Final residual = 300.3091606371666, No Iterations 1
LUSGS: converged in 1 iterations.
    ExecutionTime = 0.32 s

fieldAverage fieldAverage write:
    Calculating averages

Mean and max Courant Numbers = 0.2785791526180734 0.2787789989350993
Flow time scale min/max = 2.15224246550825e-06, 2.155134926406648e-06
Smoothed flow time scale min/max = 2.15224246550825e-06, 2.155134926406648e-06

 Time = 6.600000000000001e-05
LUSGS: iteration 1
LUSGS:  Solving for rho,  Initial residual = 0.001065649826870457, Final residual = 0.001069015036760631, No Iterations 1
LUSGS:  Solving for rhoU, Initial residual = 0.3803248571213188, Final residual = 0.368430651526002, No Iterations 1
LUSGS:  Solving for rhoE, Initial residual = 321.5661078855496, Final residual = 322.5970025716831, No Iterations 1
LUSGS: converged in 1 iterations.
    ExecutionTime = 0.32 s

fieldAverage fieldAverage write:
    Calculating averages

Mean and max Courant Numbers = 0.2785791539070229 0.2787721439259209
Flow time scale min/max = 2.152295389167147e-06, 2.155142239181859e-06
Smoothed flow time scale min/max = 2.152295389167147e-06, 2.155142239181859e-06

 Time = 6.8e-05
LUSGS: iteration 1
LUSGS:  Solving for rho,  Initial residual = 0.001120248021030815, Final residual = 0.001102222140087114, No Iterations 1
LUSGS:  Solving for rhoU, Initial residual = 0.4002431518410572, Final residual = 0.3785389329654361, No Iterations 1
LUSGS:  Solving for rhoE, Initial residual = 338.0480197386298, Final residual = 332.5914669885518, No Iterations 1
LUSGS: converged in 1 iterations.
    ExecutionTime = 0.32 s

fieldAverage fieldAverage write:
    Calculating averages

Mean and max Courant Numbers = 0.2785791547525159 0.2787880379812285
Flow time scale min/max = 2.152172684110641e-06, 2.155139946392684e-06
Smoothed flow time scale min/max = 2.152172684110641e-06, 2.155139946392684e-06

 Time = 6.999999999999999e-05
LUSGS: iteration 1
LUSGS:  Solving for rho,  Initial residual = 0.001171325506522466, Final residual = 0.001160932728065929, No Iterations 1
LUSGS:  Solving for rhoU, Initial residual = 0.4029561193561654, Final residual = 0.3982006915370832, No Iterations 1
LUSGS:  Solving for rhoE, Initial residual = 353.4276446653293, Final residual = 350.3000536420458, No Iterations 1
LUSGS: converged in 1 iterations.
    ExecutionTime = 0.32 s

fieldAverage fieldAverage write:
    Calculating averages

Mean and max Courant Numbers = 0.2785791554689035 0.2787841736678595
Flow time scale min/max = 2.152202516039643e-06, 2.155154535837947e-06
Smoothed flow time scale min/max = 2.152202516039643e-06, 2.155154535837947e-06

 Time = 7.199999999999999e-05
LUSGS: iteration 1
LUSGS:  Solving for rho,  Initial residual = 0.001244548792773743, Final residual = 0.001191337791334737, No Iterations 1
LUSGS:  Solving for rhoU, Initial residual = 0.4233226418183281, Final residual = 0.4066167950702149, No Iterations 1
LUSGS:  Solving for rhoE, Initial residual = 375.4864927625251, Final residual = 359.5006503945017, No Iterations 1
LUSGS: converged in 1 iterations.
    ExecutionTime = 0.32 s

fieldAverage fieldAverage write:
    Calculating averages

Mean and max Courant Numbers = 0.2785791564150831 0.2788042518710896
Flow time scale min/max = 2.152047524287474e-06, 2.155142368585443e-06
Smoothed flow time scale min/max = 2.152047524287474e-06, 2.155142368585443e-06

 Time = 7.399999999999998e-05
LUSGS: iteration 1
LUSGS:  Solving for rho,  Initial residual = 0.001266078020043419, Final residual = 0.001257798780489458, No Iterations 1
LUSGS:  Solving for rhoU, Initial residual = 0.4314171027238543, Final residual = 0.4221979109447864, No Iterations 1
LUSGS:  Solving for rhoE, Initial residual = 382.0129474257779, Final residual = 379.5582147946138, No Iterations 1
LUSGS: converged in 1 iterations.
    ExecutionTime = 0.32 s

fieldAverage fieldAverage write:
    Calculating averages

Mean and max Courant Numbers = 0.2785791577495807 0.2788002916632394
Flow time scale min/max = 2.152078092962453e-06, 2.155165632832019e-06
Smoothed flow time scale min/max = 2.152078092962453e-06, 2.155165632832019e-06

 Time = 7.599999999999998e-05
LUSGS: iteration 1
LUSGS:  Solving for rho,  Initial residual = 0.001330429838897683, Final residual = 0.001297285413517025, No Iterations 1
LUSGS:  Solving for rhoU, Initial residual = 0.4679791138422386, Final residual = 0.4523129665187334, No Iterations 1
LUSGS:  Solving for rhoE, Initial residual = 401.4691078911281, Final residual = 391.4710849601644, No Iterations 1
LUSGS: converged in 1 iterations.
    ExecutionTime = 0.33 s

fieldAverage fieldAverage write:
    Calculating averages

Mean and max Courant Numbers = 0.278579159656967 0.2788141818822486
Flow time scale min/max = 2.151970878774731e-06, 2.155143105664021e-06
Smoothed flow time scale min/max = 2.151970878774731e-06, 2.155143105664021e-06

 Time = 7.799999999999997e-05
LUSGS: iteration 1
LUSGS:  Solving for rho,  Initial residual = 0.001346836079489356, Final residual = 0.00133988344833485, No Iterations 1
LUSGS:  Solving for rhoU, Initial residual = 0.4866997755045993, Final residual = 0.462984593337719, No Iterations 1
LUSGS:  Solving for rhoE, Initial residual = 406.4000859302734, Final residual = 404.3267267597803, No Iterations 1
LUSGS: converged in 1 iterations.
    ExecutionTime = 0.33 s

fieldAverage fieldAverage write:
    Calculating averages

Mean and max Courant Numbers = 0.2785791621532328 0.2788101713159214
Flow time scale min/max = 2.152001833965148e-06, 2.155175097943124e-06
Smoothed flow time scale min/max = 2.152001833965148e-06, 2.155175097943124e-06

 Time = 7.999999999999997e-05
LUSGS: iteration 1
LUSGS:  Solving for rho,  Initial residual = 0.001447980941509275, Final residual = 0.001410182832101026, No Iterations 1
LUSGS:  Solving for rhoU, Initial residual = 0.5014398319580764, Final residual = 0.4890631550635901, No Iterations 1
LUSGS:  Solving for rhoE, Initial residual = 436.9078905276031, Final residual = 425.5094438140194, No Iterations 1
LUSGS: converged in 1 iterations.
    ExecutionTime = 0.33 s

fieldAverage fieldAverage write:
    Calculating averages

Mean and max Courant Numbers = 0.2785791651398263 0.2788284347132151
Flow time scale min/max = 2.151860876804481e-06, 2.155158421659587e-06
Smoothed flow time scale min/max = 2.151860876804481e-06, 2.155158421659587e-06

 Time = 8.199999999999996e-05
LUSGS: iteration 1
LUSGS:  Solving for rho,  Initial residual = 0.001499265390574471, Final residual = 0.001446588971045493, No Iterations 1
LUSGS:  Solving for rhoU, Initial residual = 0.5220025775460807, Final residual = 0.492616125971358, No Iterations 1
LUSGS:  Solving for rhoE, Initial residual = 452.4138740288309, Final residual = 436.5458965400473, No Iterations 1
LUSGS: converged in 1 iterations.
    ExecutionTime = 0.33 s

fieldAverage fieldAverage write:
    Calculating averages

Mean and max Courant Numbers = 0.2785791684466967 0.2788262846105806
Flow time scale min/max = 2.151877470368271e-06, 2.155184269001323e-06
Smoothed flow time scale min/max = 2.151877470368271e-06, 2.155184269001323e-06

 Time = 8.399999999999995e-05
LUSGS: iteration 1
LUSGS:  Solving for rho,  Initial residual = 0.001563680759928189, Final residual = 0.001552600018642475, No Iterations 1
LUSGS:  Solving for rhoU, Initial residual = 0.5392310699643376, Final residual = 0.5275543034073233, No Iterations 1
LUSGS:  Solving for rhoE, Initial residual = 471.8438078540515, Final residual = 468.5033809381906, No Iterations 1
LUSGS: converged in 1 iterations.
    ExecutionTime = 0.33 s

fieldAverage fieldAverage write:
    Calculating averages

Mean and max Courant Numbers = 0.2785791718616031 0.2788396033989917
Flow time scale min/max = 2.151774685827034e-06, 2.155178155727944e-06
Smoothed flow time scale min/max = 2.151774685827034e-06, 2.155178155727944e-06

 Time = 8.599999999999995e-05
LUSGS: iteration 1
LUSGS:  Solving for rho,  Initial residual = 0.001610595009875278, Final residual = 0.001550960024668535, No Iterations 1
LUSGS:  Solving for rhoU, Initial residual = 0.5769320640251528, Final residual = 0.5470355761368209, No Iterations 1
LUSGS:  Solving for rhoE, Initial residual = 485.9920973301498, Final residual = 468.0388794177734, No Iterations 1
LUSGS: converged in 1 iterations.
    ExecutionTime = 0.33 s

fieldAverage fieldAverage write:
    Calculating averages

Mean and max Courant Numbers = 0.2785791751944488 0.2788371063161851
Flow time scale min/max = 2.151793955714183e-06, 2.155211654996953e-06
Smoothed flow time scale min/max = 2.151793955714183e-06, 2.155211654996953e-06

 Time = 8.799999999999994e-05
LUSGS: iteration 1
LUSGS:  Solving for rho,  Initial residual = 0.001662555741648764, Final residual = 0.001652907085238866, No Iterations 1
LUSGS:  Solving for rhoU, Initial residual = 0.583222028980362, Final residual = 0.565547438041474, No Iterations 1
LUSGS:  Solving for rhoE, Initial residual = 501.6723132355409, Final residual = 498.760370618724, No Iterations 1
LUSGS: converged in 1 iterations.
    ExecutionTime = 0.34 s

fieldAverage fieldAverage write:
    Calculating averages

Mean and max Courant Numbers = 0.2785791783785952 0.27885285490407
Flow time scale min/max = 2.151672430272983e-06, 2.155360747301928e-06
Smoothed flow time scale min/max = 2.151672430272983e-06, 2.155360747301928e-06

 Time = 8.999999999999994e-05
LUSGS: iteration 1
LUSGS:  Solving for rho,  Initial residual = 0.001782738796499855, Final residual = 0.001711538355531249, No Iterations 1
LUSGS:  Solving for rhoU, Initial residual = 0.6142487575407168, Final residual = 0.5808246006157224, No Iterations 1
LUSGS:  Solving for rhoE, Initial residual = 537.8702417356346, Final residual = 516.4847549579974, No Iterations 1
LUSGS: converged in 1 iterations.
    ExecutionTime = 0.34 s

fieldAverage fieldAverage write:
    Calculating averages

Mean and max Courant Numbers = 0.278579181274655 0.2788514590597259
Flow time scale min/max = 2.151683200881114e-06, 2.155462928667366e-06
Smoothed flow time scale min/max = 2.151683200881114e-06, 2.155462928667366e-06

 Time = 9.199999999999993e-05
LUSGS: iteration 1
LUSGS:  Solving for rho,  Initial residual = 0.001812564345749275, Final residual = 0.001797676920768296, No Iterations 1
LUSGS:  Solving for rhoU, Initial residual = 0.622332951991844, Final residual = 0.6092539485931461, No Iterations 1
LUSGS:  Solving for rhoE, Initial residual = 546.9543727952639, Final residual = 542.445044167977, No Iterations 1
LUSGS: converged in 1 iterations.
    ExecutionTime = 0.34 s

fieldAverage fieldAverage write:
    Calculating averages

Mean and max Courant Numbers = 0.2785791838820638 0.2788646465039449
Flow time scale min/max = 2.151581448283414e-06, 2.155433492360351e-06
Smoothed flow time scale min/max = 2.151581448283414e-06, 2.155433492360351e-06

 Time = 9.399999999999993e-05
LUSGS: iteration 1
LUSGS:  Solving for rho,  Initial residual = 0.001916928462343959, Final residual = 0.001850811064797168, No Iterations 1
LUSGS:  Solving for rhoU, Initial residual = 0.6683920745345943, Final residual = 0.6379982555874072, No Iterations 1
LUSGS:  Solving for rhoE, Initial residual = 578.4380180609579, Final residual = 558.5042867246923, No Iterations 1
LUSGS: converged in 1 iterations.
    ExecutionTime = 0.34 s

fieldAverage fieldAverage write:
    Calculating averages

Mean and max Courant Numbers = 0.2785791862425069 0.2788626826158124
Flow time scale min/max = 2.151596600777942e-06, 2.155562922985424e-06
Smoothed flow time scale min/max = 2.151596600777942e-06, 2.155562922985424e-06

 Time = 9.599999999999992e-05
LUSGS: iteration 1
LUSGS:  Solving for rho,  Initial residual = 0.001931557009161888, Final residual = 0.001916789921821471, No Iterations 1
LUSGS:  Solving for rhoU, Initial residual = 0.6891512684173945, Final residual = 0.6687884766537825, No Iterations 1
LUSGS:  Solving for rhoE, Initial residual = 582.8340327691416, Final residual = 578.4308401808139, No Iterations 1
LUSGS: converged in 1 iterations.
    ExecutionTime = 0.34 s

fieldAverage fieldAverage write:
    Calculating averages

Mean and max Courant Numbers = 0.2785791884289193 0.2788777931115483
Flow time scale min/max = 2.151480020354313e-06, 2.155594296145457e-06
Smoothed flow time scale min/max = 2.151480020354313e-06, 2.155594296145457e-06

 Time = 9.799999999999992e-05
LUSGS: iteration 1
LUSGS:  Solving for rho,  Initial residual = 0.002065322670942301, Final residual = 0.001997439871083504, No Iterations 1
LUSGS:  Solving for rhoU, Initial residual = 0.704327010882707, Final residual = 0.6807427242457011, No Iterations 1
LUSGS:  Solving for rhoE, Initial residual = 623.1767672068913, Final residual = 602.7716500055279, No Iterations 1
LUSGS: converged in 1 iterations.
    ExecutionTime = 0.34 s

fieldAverage fieldAverage write:
    Calculating averages

Mean and max Courant Numbers = 0.2785791905297477 0.2788760880805363
Flow time scale min/max = 2.151493174368993e-06, 2.15579423387424e-06
Smoothed flow time scale min/max = 2.151493174368993e-06, 2.15579423387424e-06

 Time = 9.999999999999991e-05
LUSGS: iteration 1
LUSGS:  Solving for rho,  Initial residual = 0.002140788528592926, Final residual = 0.002101933744850516, No Iterations 1
LUSGS:  Solving for rhoU, Initial residual = 0.7417785449835476, Final residual = 0.7180014578924168, No Iterations 1
LUSGS:  Solving for rhoE, Initial residual = 646.002861279576, Final residual = 634.2916092402529, No Iterations 1
LUSGS: converged in 1 iterations.
    ExecutionTime = 0.34 s

fieldAverage fieldAverage write:
    Calculating averages

Mean and max Courant Numbers = 0.2785791926508757 0.2788899419359074
Flow time scale min/max = 2.1513862989648e-06, 2.155714836614963e-06
Smoothed flow time scale min/max = 2.1513862989648e-06, 2.155714836614963e-06

 Time = 0.0001019999999999999
LUSGS: iteration 1
LUSGS:  Solving for rho,  Initial residual = 0.002198060024671843, Final residual = 0.002162942020698659, No Iterations 1
LUSGS:  Solving for rhoU, Initial residual = 0.78144897323322, Final residual = 0.7377152637756013, No Iterations 1
LUSGS:  Solving for rhoE, Initial residual = 663.2434621802457, Final residual = 652.7061983927379, No Iterations 1
LUSGS: converged in 1 iterations.
    ExecutionTime = 0.35 s

fieldAverage fieldAverage write:
    Calculating averages

Mean and max Courant Numbers = 0.2785791948622384 0.2788873439341528
Flow time scale min/max = 2.151406340409854e-06, 2.155908117278395e-06
Smoothed flow time scale min/max = 2.151406340409854e-06, 2.155908117278395e-06

 Time = 0.0001039999999999999
LUSGS: iteration 1
LUSGS:  Solving for rho,  Initial residual = 0.002290923713501201, Final residual = 0.002242998782960156, No Iterations 1
LUSGS:  Solving for rhoU, Initial residual = 0.808414927501321, Final residual = 0.7828130915463468, No Iterations 1
LUSGS:  Solving for rhoE, Initial residual = 691.2940089287088, Final residual = 676.8851405366644, No Iterations 1
LUSGS: converged in 1 iterations.
    ExecutionTime = 0.35 s

fieldAverage fieldAverage write:
    Calculating averages

Mean and max Courant Numbers = 0.2785791972202707 0.2789031048232383
Flow time scale min/max = 2.15128476386186e-06, 2.155850720591177e-06
Smoothed flow time scale min/max = 2.15128476386186e-06, 2.155850720591177e-06

 Time = 0.0001059999999999999
LUSGS: iteration 1
LUSGS:  Solving for rho,  Initial residual = 0.002396382984869195, Final residual = 0.002317036661618907, No Iterations 1
LUSGS:  Solving for rhoU, Initial residual = 0.8361022810248689, Final residual = 0.7902037076083457, No Iterations 1
LUSGS:  Solving for rhoE, Initial residual = 723.1268552643885, Final residual = 699.1947015721888, No Iterations 1
LUSGS: converged in 1 iterations.
    ExecutionTime = 0.35 s

fieldAverage fieldAverage write:
    Calculating averages

Mean and max Courant Numbers = 0.2785791997475229 0.2789000078195764
Flow time scale min/max = 2.151308652483606e-06, 2.156133245499595e-06
Smoothed flow time scale min/max = 2.151308652483606e-06, 2.156133245499595e-06

 Time = 0.0001079999999999999
LUSGS: iteration 1
LUSGS:  Solving for rho,  Initial residual = 0.002510387181081837, Final residual = 0.002467879345642886, No Iterations 1
LUSGS:  Solving for rhoU, Initial residual = 0.8593282918479694, Final residual = 0.8267932137259508, No Iterations 1
LUSGS:  Solving for rhoE, Initial residual = 757.5331997013269, Final residual = 744.7159250163194, No Iterations 1
LUSGS: converged in 1 iterations.
    ExecutionTime = 0.35 s

fieldAverage fieldAverage write:
    Calculating averages

Mean and max Courant Numbers = 0.2785792024272291 0.278915860581635
Flow time scale min/max = 2.151186378389507e-06, 2.156122305474144e-06
Smoothed flow time scale min/max = 2.151186378389507e-06, 2.156122305474144e-06

 Time = 0.0001099999999999999
LUSGS: iteration 1
LUSGS:  Solving for rho,  Initial residual = 0.002599867624007356, Final residual = 0.002510815806778327, No Iterations 1
LUSGS:  Solving for rhoU, Initial residual = 0.9079038104004423, Final residual = 0.8740667157800521, No Iterations 1
LUSGS:  Solving for rhoE, Initial residual = 784.5224829408836, Final residual = 757.665133128093, No Iterations 1
LUSGS: converged in 1 iterations.
    ExecutionTime = 0.35 s

fieldAverage fieldAverage write:
    Calculating averages

Mean and max Courant Numbers = 0.278579205217786 0.2789114272672037
Flow time scale min/max = 2.151220571630383e-06, 2.156269647625581e-06
Smoothed flow time scale min/max = 2.151220571630383e-06, 2.156269647625581e-06

 Time = 0.0001119999999999999
LUSGS: iteration 1
LUSGS:  Solving for rho,  Initial residual = 0.002663762063648424, Final residual = 0.002604755033331683, No Iterations 1
LUSGS:  Solving for rhoU, Initial residual = 0.9398647983776751, Final residual = 0.8965683016087515, No Iterations 1
LUSGS:  Solving for rhoE, Initial residual = 803.7450585055642, Final residual = 786.0200492512669, No Iterations 1
LUSGS: converged in 1 iterations.
    ExecutionTime = 0.35 s

fieldAverage fieldAverage write:
    Calculating averages

Mean and max Courant Numbers = 0.278579208081392 0.2789293974084163
Flow time scale min/max = 2.151081978359789e-06, 2.15627901626092e-06
Smoothed flow time scale min/max = 2.151081978359789e-06, 2.15627901626092e-06

 Time = 0.0001139999999999999
LUSGS: iteration 1
LUSGS:  Solving for rho,  Initial residual = 0.002789680893268242, Final residual = 0.002718932190533418, No Iterations 1
LUSGS:  Solving for rhoU, Initial residual = 0.9831461320572235, Final residual = 0.946257771332185, No Iterations 1
LUSGS:  Solving for rhoE, Initial residual = 841.7512408585058, Final residual = 820.4951015969791, No Iterations 1
LUSGS: converged in 1 iterations.
    ExecutionTime = 0.36 s

fieldAverage fieldAverage write:
    Calculating averages

Mean and max Courant Numbers = 0.2785792109513318 0.2789237945303148
Flow time scale min/max = 2.151125188191103e-06, 2.156476366685203e-06
Smoothed flow time scale min/max = 2.151125188191103e-06, 2.156476366685203e-06

 Time = 0.0001159999999999999
LUSGS: iteration 1
LUSGS:  Solving for rho,  Initial residual = 0.002894342911575919, Final residual = 0.002812653652864973, No Iterations 1
LUSGS:  Solving for rhoU, Initial residual = 1.007223124004498, Final residual = 0.9525830658900216, No Iterations 1
LUSGS:  Solving for rhoE, Initial residual = 873.3810558771378, Final residual = 848.7672206151199, No Iterations 1
LUSGS: converged in 1 iterations.
    ExecutionTime = 0.36 s

fieldAverage fieldAverage write:
    Calculating averages

Mean and max Courant Numbers = 0.2785792137677986 0.2789428348393274
Flow time scale min/max = 2.150978354922087e-06, 2.156534321179233e-06
Smoothed flow time scale min/max = 2.150978354922087e-06, 2.156534321179233e-06

 Time = 0.0001179999999999999
LUSGS: iteration 1
LUSGS:  Solving for rho,  Initial residual = 0.003059411743305652, Final residual = 0.003002300748574995, No Iterations 1
LUSGS:  Solving for rhoU, Initial residual = 1.049123027745209, Final residual = 1.016499482733452, No Iterations 1
LUSGS:  Solving for rhoE, Initial residual = 923.2048713334004, Final residual = 905.9689243847823, No Iterations 1
LUSGS: converged in 1 iterations.
    ExecutionTime = 0.36 s

fieldAverage fieldAverage write:
    Calculating averages

Mean and max Courant Numbers = 0.2785792164609033 0.2789355478757195
Flow time scale min/max = 2.151034547476651e-06, 2.156626696573739e-06
Smoothed flow time scale min/max = 2.151034547476651e-06, 2.156626696573739e-06

 Time = 0.0001199999999999999
LUSGS: iteration 1
LUSGS:  Solving for rho,  Initial residual = 0.003097005572502757, Final residual = 0.003009103282512152, No Iterations 1
LUSGS:  Solving for rhoU, Initial residual = 1.106825477083487, Final residual = 1.043219235385877, No Iterations 1
LUSGS:  Solving for rhoE, Initial residual = 934.517437618101, Final residual = 908.0863190709983, No Iterations 1
LUSGS: converged in 1 iterations.
    ExecutionTime = 0.36 s

fieldAverage fieldAverage write:
    Calculating averages

Mean and max Courant Numbers = 0.2785792189792247 0.278956713556151
Flow time scale min/max = 2.150871338965737e-06, 2.156703181788795e-06
Smoothed flow time scale min/max = 2.150871338965737e-06, 2.156703181788795e-06

 Time = 0.0001219999999999998
LUSGS: iteration 1
LUSGS:  Solving for rho,  Initial residual = 0.003257864439387795, Final residual = 0.003189022647964447, No Iterations 1
LUSGS:  Solving for rhoU, Initial residual = 1.125870870107243, Final residual = 1.103422626464903, No Iterations 1
LUSGS:  Solving for rhoE, Initial residual = 983.0682110408563, Final residual = 962.3144610767288, No Iterations 1
LUSGS: converged in 1 iterations.
    ExecutionTime = 0.36 s

fieldAverage fieldAverage write:
    Calculating averages

Mean and max Courant Numbers = 0.2785792212979017 0.278950277679223
Flow time scale min/max = 2.150920963376727e-06, 2.156828666368442e-06
Smoothed flow time scale min/max = 2.150920963376727e-06, 2.156828666368442e-06

 Time = 0.0001239999999999998
LUSGS: iteration 1
LUSGS:  Solving for rho,  Initial residual = 0.003421882344389237, Final residual = 0.003266726779992006, No Iterations 1
LUSGS:  Solving for rhoU, Initial residual = 1.192206115105654, Final residual = 1.127180746898129, No Iterations 1
LUSGS:  Solving for rhoE, Initial residual = 1032.565776356716, Final residual = 985.7597896767871, No Iterations 1
LUSGS: converged in 1 iterations.
    ExecutionTime = 0.36 s

fieldAverage fieldAverage write:
    Calculating averages

Mean and max Courant Numbers = 0.2785792233958022 0.2789703145480944
Flow time scale min/max = 2.150766474819887e-06, 2.156950373478296e-06
Smoothed flow time scale min/max = 2.150766474819887e-06, 2.156950373478296e-06

 Time = 0.0001259999999999998
LUSGS: iteration 1
LUSGS:  Solving for rho,  Initial residual = 0.00348626526331996, Final residual = 0.003485243527490338, No Iterations 1
LUSGS:  Solving for rhoU, Initial residual = 1.219221358151439, Final residual = 1.177399526096073, No Iterations 1
LUSGS:  Solving for rhoE, Initial residual = 1052.03979255859, Final residual = 1051.727538746309, No Iterations 1
LUSGS: converged in 1 iterations.
    ExecutionTime = 0.37 s

fieldAverage fieldAverage write:
    Calculating averages

Mean and max Courant Numbers = 0.278579225269422 0.2789654351303409
Flow time scale min/max = 2.150804094133247e-06, 2.1570007010233e-06
Smoothed flow time scale min/max = 2.150804094133247e-06, 2.1570007010233e-06

 Time = 0.0001279999999999998
LUSGS: iteration 1
LUSGS:  Solving for rho,  Initial residual = 0.003700530770932257, Final residual = 0.003541857524649754, No Iterations 1
LUSGS:  Solving for rhoU, Initial residual = 1.300700200279963, Final residual = 1.240769558732855, No Iterations 1
LUSGS:  Solving for rhoE, Initial residual = 1116.63117024437, Final residual = 1068.757345642613, No Iterations 1
LUSGS: converged in 1 iterations.
    ExecutionTime = 0.37 s

fieldAverage fieldAverage write:
    Calculating averages

Mean and max Courant Numbers = 0.2785792269241322 0.2789840655744982
Flow time scale min/max = 2.150660464297304e-06, 2.157140924761884e-06
Smoothed flow time scale min/max = 2.150660464297304e-06, 2.157140924761884e-06

 Time = 0.0001299999999999998
LUSGS: iteration 1
LUSGS:  Solving for rho,  Initial residual = 0.003726302729333267, Final residual = 0.003686160044756312, No Iterations 1
LUSGS:  Solving for rhoU, Initial residual = 1.323213229077641, Final residual = 1.276837686150681, No Iterations 1
LUSGS:  Solving for rhoE, Initial residual = 1124.497635116881, Final residual = 1112.374418878045, No Iterations 1
LUSGS: converged in 1 iterations.
    ExecutionTime = 0.37 s

fieldAverage fieldAverage write:
    Calculating averages

Mean and max Courant Numbers = 0.278579228407147 0.278980836805744
Flow time scale min/max = 2.150685354843148e-06, 2.157220688973508e-06
Smoothed flow time scale min/max = 2.150685354843148e-06, 2.157220688973508e-06

 Time = 0.0001319999999999998
LUSGS: iteration 1
LUSGS:  Solving for rho,  Initial residual = 0.004009087525661998, Final residual = 0.003867604620664192, No Iterations 1
LUSGS:  Solving for rhoU, Initial residual = 1.376685722127288, Final residual = 1.317473319068152, No Iterations 1
LUSGS:  Solving for rhoE, Initial residual = 1209.68894575433, Final residual = 1167.067839231322, No Iterations 1
LUSGS: converged in 1 iterations.
    ExecutionTime = 0.37 s

fieldAverage fieldAverage write:
    Calculating averages

Mean and max Courant Numbers = 0.2785792297646045 0.2790084107229283
Flow time scale min/max = 2.15047280634072e-06, 2.157400792354663e-06
Smoothed flow time scale min/max = 2.15047280634072e-06, 2.157400792354663e-06

 Time = 0.0001339999999999998
LUSGS: iteration 1
LUSGS:  Solving for rho,  Initial residual = 0.004065011730075231, Final residual = 0.004004636446062968, No Iterations 1
LUSGS:  Solving for rhoU, Initial residual = 1.422459126750963, Final residual = 1.377900410709445, No Iterations 1
LUSGS:  Solving for rhoE, Initial residual = 1226.581628902795, Final residual = 1208.525597900596, No Iterations 1
LUSGS: converged in 1 iterations.
    ExecutionTime = 0.37 s

fieldAverage fieldAverage write:
    Calculating averages

Mean and max Courant Numbers = 0.278579231045215 0.278996510389055
Flow time scale min/max = 2.150564532736671e-06, 2.157413765307285e-06
Smoothed flow time scale min/max = 2.150564532736671e-06, 2.157413765307285e-06

 Time = 0.0001359999999999998
LUSGS: iteration 1
LUSGS:  Solving for rho,  Initial residual = 0.004285827465198075, Final residual = 0.004169772315676264, No Iterations 1
LUSGS:  Solving for rhoU, Initial residual = 1.500662671276032, Final residual = 1.432961874836303, No Iterations 1
LUSGS:  Solving for rhoE, Initial residual = 1293.290536435009, Final residual = 1258.253339558341, No Iterations 1
LUSGS: converged in 1 iterations.
    ExecutionTime = 0.37 s

fieldAverage fieldAverage write:
    Calculating averages

Mean and max Courant Numbers = 0.2785792323180886 0.2790322787856735
Flow time scale min/max = 2.15028885765888e-06, 2.157609167439019e-06
Smoothed flow time scale min/max = 2.15028885765888e-06, 2.157609167439019e-06

 Time = 0.0001379999999999998
LUSGS: iteration 1
LUSGS:  Solving for rho,  Initial residual = 0.004370542188545138, Final residual = 0.004333231239066811, No Iterations 1
LUSGS:  Solving for rhoU, Initial residual = 1.567348154873832, Final residual = 1.508386751625702, No Iterations 1
LUSGS:  Solving for rhoE, Initial residual = 1318.726964405839, Final residual = 1307.666535199588, No Iterations 1
LUSGS: converged in 1 iterations.
    ExecutionTime = 0.38 s

fieldAverage fieldAverage write:
    Calculating averages

Mean and max Courant Numbers = 0.2785792336379891 0.2790230985978021
Flow time scale min/max = 2.150359604689468e-06, 2.157643646456267e-06
Smoothed flow time scale min/max = 2.150359604689468e-06, 2.157643646456267e-06

 Time = 0.0001399999999999998
LUSGS: iteration 1
LUSGS:  Solving for rho,  Initial residual = 0.004615674400452909, Final residual = 0.004463833719616971, No Iterations 1
LUSGS:  Solving for rhoU, Initial residual = 1.605877654349725, Final residual = 1.52063431144209, No Iterations 1
LUSGS:  Solving for rhoE, Initial residual = 1392.814128032178, Final residual = 1347.018319045171, No Iterations 1
LUSGS: converged in 1 iterations.
    ExecutionTime = 0.38 s

fieldAverage fieldAverage write:
    Calculating averages

Mean and max Courant Numbers = 0.278579235082645 0.2790827703017387
Flow time scale min/max = 2.149899828467704e-06, 2.157873521336825e-06
Smoothed flow time scale min/max = 2.149899828467704e-06, 2.157873521336825e-06

 Time = 0.0001419999999999998
LUSGS: iteration 1
LUSGS:  Solving for rho,  Initial residual = 0.00481866805306218, Final residual = 0.004738360304925914, No Iterations 1
LUSGS:  Solving for rhoU, Initial residual = 1.674040877836814, Final residual = 1.602414108104464, No Iterations 1
LUSGS:  Solving for rhoE, Initial residual = 1453.996793034868, Final residual = 1429.868882204817, No Iterations 1
LUSGS: converged in 1 iterations.
    ExecutionTime = 0.38 s

fieldAverage fieldAverage write:
    Calculating averages

Mean and max Courant Numbers = 0.2785792366473678 0.2790765131085248
Flow time scale min/max = 2.14994803151592e-06, 2.157857423953057e-06
Smoothed flow time scale min/max = 2.14994803151592e-06, 2.157857423953057e-06

 Time = 0.0001439999999999998
LUSGS: iteration 1
LUSGS:  Solving for rho,  Initial residual = 0.004953643424692947, Final residual = 0.004803764398022813, No Iterations 1
LUSGS:  Solving for rhoU, Initial residual = 1.751004660022434, Final residual = 1.666068275740162, No Iterations 1
LUSGS:  Solving for rhoE, Initial residual = 1494.909413082593, Final residual = 1449.598437845027, No Iterations 1
LUSGS: converged in 1 iterations.
    ExecutionTime = 0.38 s

fieldAverage fieldAverage write:
    Calculating averages

Mean and max Courant Numbers = 0.2785792383250838 0.2791120592033185
Flow time scale min/max = 2.149674226590588e-06, 2.158102183081346e-06
Smoothed flow time scale min/max = 2.149674226590588e-06, 2.158102183081346e-06

 Time = 0.0001459999999999998
LUSGS: iteration 1
LUSGS:  Solving for rho,  Initial residual = 0.005130474226335902, Final residual = 0.005035690806779285, No Iterations 1
LUSGS:  Solving for rhoU, Initial residual = 1.803493048159739, Final residual = 1.743823432533278, No Iterations 1
LUSGS:  Solving for rhoE, Initial residual = 1548.110085299016, Final residual = 1519.53749448802, No Iterations 1
LUSGS: converged in 1 iterations.
    ExecutionTime = 0.38 s

fieldAverage fieldAverage write:
    Calculating averages

Mean and max Courant Numbers = 0.2785792400863185 0.2791127825699686
Flow time scale min/max = 2.149668655356516e-06, 2.158098365071754e-06
Smoothed flow time scale min/max = 2.149668655356516e-06, 2.158098365071754e-06

 Time = 0.0001479999999999998
LUSGS: iteration 1
LUSGS:  Solving for rho,  Initial residual = 0.005380266483142028, Final residual = 0.005196716019354723, No Iterations 1
LUSGS:  Solving for rhoU, Initial residual = 1.887387423429962, Final residual = 1.796448008876219, No Iterations 1
LUSGS:  Solving for rhoE, Initial residual = 1623.554003584682, Final residual = 1568.179092378086, No Iterations 1
LUSGS: converged in 1 iterations.
    ExecutionTime = 0.38 s

fieldAverage fieldAverage write:
    Calculating averages

Mean and max Courant Numbers = 0.278579241909497 0.2791619384627275
Flow time scale min/max = 2.149290133547735e-06, 2.158371879771519e-06
Smoothed flow time scale min/max = 2.149290133547735e-06, 2.158371879771519e-06

 Time = 0.0001499999999999998
LUSGS: iteration 1
LUSGS:  Solving for rho,  Initial residual = 0.005524860331257844, Final residual = 0.005452796623825954, No Iterations 1
LUSGS:  Solving for rhoU, Initial residual = 1.921406715057119, Final residual = 1.846050415376931, No Iterations 1
LUSGS:  Solving for rhoE, Initial residual = 1667.063713514789, Final residual = 1645.49236277842, No Iterations 1
LUSGS: converged in 1 iterations.
    ExecutionTime = 0.38 s

fieldAverage fieldAverage write:
    Calculating averages

Mean and max Courant Numbers = 0.2785792437290369 0.2791754606963447
Flow time scale min/max = 2.149186029830221e-06, 2.15833513898968e-06
Smoothed flow time scale min/max = 2.149186029830221e-06, 2.15833513898968e-06

 Time = 0.0001519999999999998
LUSGS: iteration 1
LUSGS:  Solving for rho,  Initial residual = 0.005867739144584491, Final residual = 0.00566788375937642, No Iterations 1
LUSGS:  Solving for rhoU, Initial residual = 2.030890371042264, Final residual = 1.945727563349378, No Iterations 1
LUSGS:  Solving for rhoE, Initial residual = 1770.62298098417, Final residual = 1710.417483544384, No Iterations 1
LUSGS: converged in 1 iterations.
    ExecutionTime = 0.39 s

fieldAverage fieldAverage write:
    Calculating averages

Mean and max Courant Numbers = 0.2785792454599276 0.2791956891379784
Flow time scale min/max = 2.149030315806489e-06, 2.15862306020768e-06
Smoothed flow time scale min/max = 2.149030315806489e-06, 2.15862306020768e-06

 Time = 0.0001539999999999998
LUSGS: iteration 1
LUSGS:  Solving for rho,  Initial residual = 0.005896990110180784, Final residual = 0.005809854901450446, No Iterations 1
LUSGS:  Solving for rhoU, Initial residual = 2.099817303855954, Final residual = 1.997881631715486, No Iterations 1
LUSGS:  Solving for rhoE, Initial residual = 1779.535485300627, Final residual = 1753.137866565082, No Iterations 1
LUSGS: converged in 1 iterations.
    ExecutionTime = 0.39 s

fieldAverage fieldAverage write:
    Calculating averages

Mean and max Courant Numbers = 0.2785792470380936 0.279216371879318
Flow time scale min/max = 2.148871128012974e-06, 2.158595085037496e-06
Smoothed flow time scale min/max = 2.148871128012974e-06, 2.158595085037496e-06

 Time = 0.0001559999999999998
LUSGS: iteration 1
LUSGS:  Solving for rho,  Initial residual = 0.006301891795657694, Final residual = 0.006103794066584429, No Iterations 1
LUSGS:  Solving for rhoU, Initial residual = 2.181025681713245, Final residual = 2.097958659126173, No Iterations 1
LUSGS:  Solving for rhoE, Initial residual = 1901.488839003917, Final residual = 1841.956859743582, No Iterations 1
LUSGS: converged in 1 iterations.
    ExecutionTime = 0.39 s

fieldAverage fieldAverage write:
    Calculating averages

Mean and max Courant Numbers = 0.278579248408204 0.2792438158061464
Flow time scale min/max = 2.148659938154281e-06, 2.158905026250497e-06
Smoothed flow time scale min/max = 2.148659938154281e-06, 2.158905026250497e-06

 Time = 0.0001579999999999997
LUSGS: iteration 1
LUSGS:  Solving for rho,  Initial residual = 0.006494256100963467, Final residual = 0.006261120968832184, No Iterations 1
LUSGS:  Solving for rhoU, Initial residual = 2.262517297748594, Final residual = 2.14837626868171, No Iterations 1
LUSGS:  Solving for rhoE, Initial residual = 1959.652660425056, Final residual = 1889.395433262543, No Iterations 1
LUSGS: converged in 1 iterations.
    ExecutionTime = 0.39 s

fieldAverage fieldAverage write:
    Calculating averages

Mean and max Courant Numbers = 0.2785792495115708 0.2792782365523773
Flow time scale min/max = 2.148395118097478e-06, 2.158854786497521e-06
Smoothed flow time scale min/max = 2.148395118097478e-06, 2.158854786497521e-06

 Time = 0.0001599999999999997
LUSGS: iteration 1
LUSGS:  Solving for rho,  Initial residual = 0.006751399105693162, Final residual = 0.006629543497965128, No Iterations 1
LUSGS:  Solving for rhoU, Initial residual = 2.338267976620699, Final residual = 2.258437947897675, No Iterations 1
LUSGS:  Solving for rhoE, Initial residual = 2037.296966320781, Final residual = 2000.576155713162, No Iterations 1
LUSGS: converged in 1 iterations.
    ExecutionTime = 0.39 s

fieldAverage fieldAverage write:
    Calculating averages

Mean and max Courant Numbers = 0.2785792502988719 0.2792819847631897
Flow time scale min/max = 2.148366284738185e-06, 2.159175848680849e-06
Smoothed flow time scale min/max = 2.148366284738185e-06, 2.159175848680849e-06

 Time = 0.0001619999999999997
LUSGS: iteration 1
LUSGS:  Solving for rho,  Initial residual = 0.00694692528499836, Final residual = 0.006751362264862145, No Iterations 1
LUSGS:  Solving for rhoU, Initial residual = 2.494163552072158, Final residual = 2.361146560199932, No Iterations 1
LUSGS:  Solving for rhoE, Initial residual = 2096.29636764784, Final residual = 2037.343164559492, No Iterations 1
LUSGS: converged in 1 iterations.
    ExecutionTime = 0.39 s

fieldAverage fieldAverage write:
    Calculating averages

Mean and max Courant Numbers = 0.2785792507197882 0.2793244580058403
Flow time scale min/max = 2.148039610578801e-06, 2.159130233915983e-06
Smoothed flow time scale min/max = 2.148039610578801e-06, 2.159130233915983e-06

 Time = 0.0001639999999999997
LUSGS: iteration 1
LUSGS:  Solving for rho,  Initial residual = 0.007169072534489092, Final residual = 0.007069952112797538, No Iterations 1
LUSGS:  Solving for rhoU, Initial residual = 2.532900441307005, Final residual = 2.435305410750866, No Iterations 1
LUSGS:  Solving for rhoE, Initial residual = 2163.310184027453, Final residual = 2133.40358798528, No Iterations 1
LUSGS: converged in 1 iterations.
    ExecutionTime = 0.4 s

fieldAverage fieldAverage write:
    Calculating averages

Mean and max Courant Numbers = 0.278579250831247 0.2793329800823069
Flow time scale min/max = 2.147974076756733e-06, 2.159467373780136e-06
Smoothed flow time scale min/max = 2.147974076756733e-06, 2.159467373780136e-06

 Time = 0.0001659999999999997
LUSGS: iteration 1
LUSGS:  Solving for rho,  Initial residual = 0.007666714574136194, Final residual = 0.007392553276384911, No Iterations 1
LUSGS:  Solving for rhoU, Initial residual = 2.650854251809215, Final residual = 2.511307080186167, No Iterations 1
LUSGS:  Solving for rhoE, Initial residual = 2313.491849979593, Final residual = 2230.757658611291, No Iterations 1
LUSGS: converged in 1 iterations.
    ExecutionTime = 0.4 s

fieldAverage fieldAverage write:
    Calculating averages

Mean and max Courant Numbers = 0.2785792506216621 0.279390014860434
Flow time scale min/max = 2.147535588556101e-06, 2.159409896786309e-06
Smoothed flow time scale min/max = 2.147535588556101e-06, 2.159409896786309e-06

 Time = 0.0001679999999999997
LUSGS: iteration 1
LUSGS:  Solving for rho,  Initial residual = 0.00776780485166147, Final residual = 0.007688424645616389, No Iterations 1
LUSGS:  Solving for rhoU, Initial residual = 2.703098606833217, Final residual = 2.604330323551034, No Iterations 1
LUSGS:  Solving for rhoE, Initial residual = 2343.81805996835, Final residual = 2320.114840772237, No Iterations 1
LUSGS: converged in 1 iterations.
    ExecutionTime = 0.4 s

fieldAverage fieldAverage write:
    Calculating averages

Mean and max Courant Numbers = 0.2785792501403744 0.2793761366424466
Flow time scale min/max = 2.14764226898841e-06, 2.159754812347865e-06
Smoothed flow time scale min/max = 2.14764226898841e-06, 2.159754812347865e-06

 Time = 0.0001699999999999997
LUSGS: iteration 1
LUSGS:  Solving for rho,  Initial residual = 0.008224932095788048, Final residual = 0.00794326173567101, No Iterations 1
LUSGS:  Solving for rhoU, Initial residual = 2.85726899105198, Final residual = 2.74572438236264, No Iterations 1
LUSGS:  Solving for rhoE, Initial residual = 2481.945314026334, Final residual = 2396.961695213268, No Iterations 1
LUSGS: converged in 1 iterations.
    ExecutionTime = 0.4 s

fieldAverage fieldAverage write:
    Calculating averages

Mean and max Courant Numbers = 0.2785792494250258 0.2794418879391153
Flow time scale min/max = 2.14713693936511e-06, 2.159702017016669e-06
Smoothed flow time scale min/max = 2.14713693936511e-06, 2.159702017016669e-06

 Time = 0.0001719999999999997
LUSGS: iteration 1
LUSGS:  Solving for rho,  Initial residual = 0.008311713943045296, Final residual = 0.008172302610914181, No Iterations 1
LUSGS:  Solving for rhoU, Initial residual = 2.982607984675233, Final residual = 2.851590500211024, No Iterations 1
LUSGS:  Solving for rhoE, Initial residual = 2508.10600682647, Final residual = 2466.214882519504, No Iterations 1
LUSGS: converged in 1 iterations.
    ExecutionTime = 0.4 s

fieldAverage fieldAverage write:
    Calculating averages

Mean and max Courant Numbers = 0.2785792485521095 0.2794295338406694
Flow time scale min/max = 2.147231868275311e-06, 2.160056690350828e-06
Smoothed flow time scale min/max = 2.147231868275311e-06, 2.160056690350828e-06

 Time = 0.0001739999999999997
LUSGS: iteration 1
LUSGS:  Solving for rho,  Initial residual = 0.008807734620878594, Final residual = 0.008587456419356458, No Iterations 1
LUSGS:  Solving for rhoU, Initial residual = 3.040435757380648, Final residual = 2.936487654428755, No Iterations 1
LUSGS:  Solving for rhoE, Initial residual = 2657.634365119357, Final residual = 2591.394349298881, No Iterations 1
LUSGS: converged in 1 iterations.
    ExecutionTime = 0.4 s

fieldAverage fieldAverage write:
    Calculating averages

Mean and max Courant Numbers = 0.2785792476345426 0.2795097074140422
Flow time scale min/max = 2.146615963899995e-06, 2.160006462327886e-06
Smoothed flow time scale min/max = 2.146615963899995e-06, 2.160006462327886e-06

 Time = 0.0001759999999999997
LUSGS: iteration 1
LUSGS:  Solving for rho,  Initial residual = 0.00917033770668977, Final residual = 0.008908742929081432, No Iterations 1
LUSGS:  Solving for rhoU, Initial residual = 3.211066336986033, Final residual = 3.061994505482176, No Iterations 1
LUSGS:  Solving for rhoE, Initial residual = 2767.140228658099, Final residual = 2688.510182696371, No Iterations 1
LUSGS: converged in 1 iterations.
    ExecutionTime = 0.41 s

fieldAverage fieldAverage write:
    Calculating averages

Mean and max Courant Numbers = 0.2785792466635696 0.2794830242304717
Flow time scale min/max = 2.146820908540113e-06, 2.160364087050996e-06
Smoothed flow time scale min/max = 2.146820908540113e-06, 2.160364087050996e-06

 Time = 0.0001779999999999997
LUSGS: iteration 1
LUSGS:  Solving for rho,  Initial residual = 0.00938462845546153, Final residual = 0.00926346317638216, No Iterations 1
LUSGS:  Solving for rhoU, Initial residual = 3.328930676252488, Final residual = 3.159093251004364, No Iterations 1
LUSGS:  Solving for rhoE, Initial residual = 2831.969229337828, Final residual = 2795.385352274112, No Iterations 1
LUSGS: converged in 1 iterations.
    ExecutionTime = 0.41 s

fieldAverage fieldAverage write:
    Calculating averages

Mean and max Courant Numbers = 0.2785792457304046 0.2795683303265106
Flow time scale min/max = 2.146165838238022e-06, 2.160316642019352e-06
Smoothed flow time scale min/max = 2.146165838238022e-06, 2.160316642019352e-06

 Time = 0.0001799999999999997
LUSGS: iteration 1
LUSGS:  Solving for rho,  Initial residual = 0.00984765812468421, Final residual = 0.009564949583294282, No Iterations 1
LUSGS:  Solving for rhoU, Initial residual = 3.472034358176038, Final residual = 3.303742698592989, No Iterations 1
LUSGS:  Solving for rhoE, Initial residual = 2971.548917297546, Final residual = 2886.473113926842, No Iterations 1
LUSGS: converged in 1 iterations.
    ExecutionTime = 0.41 s

fieldAverage fieldAverage write:
    Calculating averages

Mean and max Courant Numbers = 0.2785792448261913 0.279547314158404
Flow time scale min/max = 2.146327185458177e-06, 2.160675064111314e-06
Smoothed flow time scale min/max = 2.146327185458177e-06, 2.160675064111314e-06

 Time = 0.0001819999999999997
LUSGS: iteration 1
LUSGS:  Solving for rho,  Initial residual = 0.01021455835067486, Final residual = 0.009879927057775758, No Iterations 1
LUSGS:  Solving for rhoU, Initial residual = 3.559268501665765, Final residual = 3.375569435736938, No Iterations 1
LUSGS:  Solving for rhoE, Initial residual = 3082.228046323435, Final residual = 2981.30709082597, No Iterations 1
LUSGS: converged in 1 iterations.
    ExecutionTime = 0.41 s

fieldAverage fieldAverage write:
    Calculating averages

Mean and max Courant Numbers = 0.2785792440461228 0.2796375601827553
Flow time scale min/max = 2.145634512072963e-06, 2.160775841891879e-06
Smoothed flow time scale min/max = 2.145634512072963e-06, 2.160775841891879e-06

 Time = 0.0001839999999999997
LUSGS: iteration 1
LUSGS:  Solving for rho,  Initial residual = 0.01073464436013198, Final residual = 0.01038064209563683, No Iterations 1
LUSGS:  Solving for rhoU, Initial residual = 3.704780543341703, Final residual = 3.512767261696185, No Iterations 1
LUSGS:  Solving for rhoE, Initial residual = 3239.226243360283, Final residual = 3132.536076686606, No Iterations 1
LUSGS: converged in 1 iterations.
    ExecutionTime = 0.42 s

fieldAverage fieldAverage write:
    Calculating averages

Mean and max Courant Numbers = 0.278579269097575 0.2796244726338908
Flow time scale min/max = 2.145734936389396e-06, 2.160990995504339e-06
Smoothed flow time scale min/max = 2.145734936389396e-06, 2.160990995504339e-06

 Time = 0.0001859999999999997
LUSGS: iteration 1
LUSGS:  Solving for rho,  Initial residual = 0.01101086051923681, Final residual = 0.01065289994537236, No Iterations 1
LUSGS:  Solving for rhoU, Initial residual = 3.862797243201736, Final residual = 3.700574987736681, No Iterations 1
LUSGS:  Solving for rhoE, Initial residual = 3322.490502697446, Final residual = 3214.739449278602, No Iterations 1
LUSGS: converged in 1 iterations.
    ExecutionTime = 0.42 s

fieldAverage fieldAverage write:
    Calculating averages

Mean and max Courant Numbers = 0.2785792859467106 0.279702836961355
Flow time scale min/max = 2.145133765957829e-06, 2.160779447856786e-06
Smoothed flow time scale min/max = 2.145133765957829e-06, 2.160779447856786e-06

 Time = 0.0001879999999999997
LUSGS: iteration 1
LUSGS:  Solving for rho,  Initial residual = 0.01139014230329015, Final residual = 0.01102314210180038, No Iterations 1
LUSGS:  Solving for rhoU, Initial residual = 4.014156364118159, Final residual = 3.805499575484367, No Iterations 1
LUSGS:  Solving for rhoE, Initial residual = 3437.109284027623, Final residual = 3326.49809949775, No Iterations 1
LUSGS: converged in 1 iterations.
    ExecutionTime = 0.42 s

fieldAverage fieldAverage write:
    Calculating averages

Mean and max Courant Numbers = 0.2785793018238187 0.2796951430644919
Flow time scale min/max = 2.145192774626238e-06, 2.161137943009913e-06
Smoothed flow time scale min/max = 2.145192774626238e-06, 2.161137943009913e-06

 Time = 0.0001899999999999997
LUSGS: iteration 1
LUSGS:  Solving for rho,  Initial residual = 0.01184555878340557, Final residual = 0.01155771883032585, No Iterations 1
LUSGS:  Solving for rhoU, Initial residual = 4.152517847061429, Final residual = 3.98336263404271, No Iterations 1
LUSGS:  Solving for rhoE, Initial residual = 3574.388036948465, Final residual = 3487.613286930213, No Iterations 1
LUSGS: converged in 1 iterations.
    ExecutionTime = 0.43 s

fieldAverage fieldAverage write:
    Calculating averages

Mean and max Courant Numbers = 0.2785793484790753 0.2797738866164307
Flow time scale min/max = 2.144589000983493e-06, 2.160796520808276e-06
Smoothed flow time scale min/max = 2.144589000983493e-06, 2.160796520808276e-06

 Time = 0.0001919999999999997
LUSGS: iteration 1
LUSGS:  Solving for rho,  Initial residual = 0.01231759270839573, Final residual = 0.01191800574472946, No Iterations 1
LUSGS:  Solving for rhoU, Initial residual = 4.281947005326371, Final residual = 4.038679792377851, No Iterations 1
LUSGS:  Solving for rhoE, Initial residual = 3716.755971714458, Final residual = 3596.58156510664, No Iterations 1
LUSGS: converged in 1 iterations.
    ExecutionTime = 0.43 s

fieldAverage fieldAverage write:
    Calculating averages

Mean and max Courant Numbers = 0.2785794074944474 0.2797736284742222
Flow time scale min/max = 2.144590979758062e-06, 2.160952628805928e-06
Smoothed flow time scale min/max = 2.144590979758062e-06, 2.160952628805928e-06

 Time = 0.0001939999999999996
LUSGS: iteration 1
LUSGS:  Solving for rho,  Initial residual = 0.01287760771419419, Final residual = 0.0125823277511279, No Iterations 1
LUSGS:  Solving for rhoU, Initial residual = 4.423863559142254, Final residual = 4.288577783782596, No Iterations 1
LUSGS:  Solving for rhoE, Initial residual = 3885.860455011753, Final residual = 3796.678222068832, No Iterations 1
LUSGS: converged in 1 iterations.
    ExecutionTime = 0.43 s

fieldAverage fieldAverage write:
    Calculating averages

Mean and max Courant Numbers = 0.2785794110594945 0.2798447158400326
Flow time scale min/max = 2.144046201476169e-06, 2.160868425150674e-06
Smoothed flow time scale min/max = 2.144046201476169e-06, 2.160868425150674e-06

 Time = 0.0001959999999999996
LUSGS: iteration 1
LUSGS:  Solving for rho,  Initial residual = 0.01315279781303309, Final residual = 0.01273786665080394, No Iterations 1
LUSGS:  Solving for rhoU, Initial residual = 4.698645762368951, Final residual = 4.405551502889962, No Iterations 1
LUSGS:  Solving for rhoE, Initial residual = 3969.121580623226, Final residual = 3844.144740276802, No Iterations 1
LUSGS: converged in 1 iterations.
    ExecutionTime = 0.43 s

fieldAverage fieldAverage write:
    Calculating averages

Mean and max Courant Numbers = 0.2785794996378538 0.279849517691887
Flow time scale min/max = 2.144009412446432e-06, 2.160724739776137e-06
Smoothed flow time scale min/max = 2.144009412446432e-06, 2.160724739776137e-06

 Time = 0.0001979999999999996
LUSGS: iteration 1
LUSGS:  Solving for rho,  Initial residual = 0.01368897930992716, Final residual = 0.01345959584221095, No Iterations 1
LUSGS:  Solving for rhoU, Initial residual = 4.77418967851266, Final residual = 4.648511827152822, No Iterations 1
LUSGS:  Solving for rhoE, Initial residual = 4130.821240484722, Final residual = 4061.589421630687, No Iterations 1
LUSGS: converged in 1 iterations.
    ExecutionTime = 0.43 s

fieldAverage fieldAverage write:
    Calculating averages

Mean and max Courant Numbers = 0.2785795233872638 0.2799216468223615
Flow time scale min/max = 2.143456952369105e-06, 2.160703272189305e-06
Smoothed flow time scale min/max = 2.143456952369105e-06, 2.160703272189305e-06

 Time = 0.0001999999999999996
LUSGS: iteration 1
LUSGS:  Solving for rho,  Initial residual = 0.01447896194657216, Final residual = 0.01375504937250954, No Iterations 1
LUSGS:  Solving for rhoU, Initial residual = 5.048500409684425, Final residual = 4.728943754125606, No Iterations 1
LUSGS:  Solving for rhoE, Initial residual = 4368.876994209724, Final residual = 4151.163601830531, No Iterations 1
LUSGS: converged in 1 iterations.
    ExecutionTime = 0.44 s

    functionObjects::mag mag(U) writing field: mag(U)
fieldAverage fieldAverage write:
    Calculating averages

    Writing average fields

Mean and max Courant Numbers = 0.2785796448265472 0.2799331569623862
Flow time scale min/max = 2.143368818866356e-06, 2.160499801640619e-06
Smoothed flow time scale min/max = 2.143368818866356e-06, 2.160499801640619e-06

 Time = 0.0002019999999999996
LUSGS: iteration 1
LUSGS:  Solving for rho,  Initial residual = 0.01468252822172756, Final residual = 0.01465267317576648, No Iterations 1
LUSGS:  Solving for rhoU, Initial residual = 5.165588928556775, Final residual = 4.955225462226815, No Iterations 1
LUSGS:  Solving for rhoE, Initial residual = 4430.860719639311, Final residual = 4421.558966202229, No Iterations 1
LUSGS: converged in 1 iterations.
    ExecutionTime = 0.46 s

fieldAverage fieldAverage write:
    Calculating averages

Mean and max Courant Numbers = 0.2785796433704586 0.2800002303128347
Flow time scale min/max = 2.142855380260368e-06, 2.160450289601435e-06
Smoothed flow time scale min/max = 2.142855380260368e-06, 2.160450289601435e-06

 Time = 0.0002039999999999996
LUSGS: iteration 1
LUSGS:  Solving for rho,  Initial residual = 0.01558583556900204, Final residual = 0.01484225908293592, No Iterations 1
LUSGS:  Solving for rhoU, Initial residual = 5.485123839789523, Final residual = 5.166377275252077, No Iterations 1
LUSGS:  Solving for rhoE, Initial residual = 4702.833845225993, Final residual = 4479.119677610556, No Iterations 1
LUSGS: converged in 1 iterations.
    ExecutionTime = 0.46 s

fieldAverage fieldAverage write:
    Calculating averages

Mean and max Courant Numbers = 0.2785797448982338 0.2800167244989332
Flow time scale min/max = 2.142729156887505e-06, 2.160392238206851e-06
Smoothed flow time scale min/max = 2.142729156887505e-06, 2.160392238206851e-06

 Time = 0.0002059999999999996
LUSGS: iteration 1
LUSGS:  Solving for rho,  Initial residual = 0.01578850847004951, Final residual = 0.01556098674114994, No Iterations 1
LUSGS:  Solving for rhoU, Initial residual = 5.564968212836001, Final residual = 5.338188507920862, No Iterations 1
LUSGS:  Solving for rhoE, Initial residual = 4764.7373087861, Final residual = 4695.820607429557, No Iterations 1
LUSGS: converged in 1 iterations.
    ExecutionTime = 0.46 s

fieldAverage fieldAverage write:
    Calculating averages

Mean and max Courant Numbers = 0.2785797938359383 0.280082470692342
Flow time scale min/max = 2.142226175443421e-06, 2.160404730188015e-06
Smoothed flow time scale min/max = 2.142226175443421e-06, 2.160404730188015e-06

 Time = 0.0002079999999999996
LUSGS: iteration 1
LUSGS:  Solving for rho,  Initial residual = 0.01691371445882506, Final residual = 0.01618238929231457, No Iterations 1
LUSGS:  Solving for rhoU, Initial residual = 5.827683016351489, Final residual = 5.508652208145336, No Iterations 1
LUSGS:  Solving for rhoE, Initial residual = 5103.675129024004, Final residual = 4883.159501734684, No Iterations 1
LUSGS: converged in 1 iterations.
[...]
LUSGS: converged in 1 iterations.
    ExecutionTime = 7.41 s

fieldAverage fieldAverage write:
    Calculating averages

Mean and max Courant Numbers = 270281.4766912548 430211176.0463313
Flow time scale min/max = 1.394663907883656e-15, 3.262053095935856e-06
Smoothed flow time scale min/max = 1.394663907883656e-15, 2.295606542878348e-06

 Time = 0.004849999999999995
LUSGS: iteration 1
bounding h, min: -1.63441287930281e+24 max: 1.017355722389294e+24 average: -2.045150077660032e+20
new min: 10047.03
new max: 803762.4
bounding p, min: 383.7426780231955 max: 2162881.530894959 average: 104121.5333730413
new max: 1000000
bounding rho, min: 0.01334302396772434 max: 39.84238769076186 average: 1.365736052324011
new max: 9.999999928282094
LUSGS:  Solving for rho,  Initial residual = 53923230.14947273, Final residual = 62.98982440257375, No Iterations 1
LUSGS:  Solving for rhoU, Initial residual = 1.009984870021782e+19, Final residual = 2760909975.588647, No Iterations 1
LUSGS:  Solving for rhoE, Initial residual = 2.956549925360457e+30, Final residual = 2.099012956066827e+21, No Iterations 1
LUSGS: converged in 1 iterations.
    ExecutionTime = 7.43 s

fieldAverage fieldAverage write:
    Calculating averages

Mean and max Courant Numbers = 303664.2258772018 486580173.6014171
Flow time scale min/max = 1.233095864878973e-15, 3.043564099512093e-06
Smoothed flow time scale min/max = 1.233095864878973e-15, 2.274746842035237e-06

 Time = 0.004851999999999995
LUSGS: iteration 1
bounding h, min: -2.11013819119649e+24 max: 1.304579131377211e+24 average: -2.630387768038909e+20
new min: 10047.03
new max: 803762.4
bounding p, min: 367.6647581753018 max: 2162820.054934337 average: 104095.7857896604
new max: 1000000
bounding rho, min: 0.01153196673275424 max: 39.84238769076186 average: 1.365735759437659
new max: 9.999999930001017
LUSGS:  Solving for rho,  Initial residual = 54582134.60080969, Final residual = 63.19085656682701, No Iterations 1
LUSGS:  Solving for rhoU, Initial residual = 1.128603789896914e+19, Final residual = 2750897952.313442, No Iterations 1
LUSGS:  Solving for rhoE, Initial residual = 3.738411128796098e+30, Final residual = 2.334191142156022e+21, No Iterations 1
LUSGS: converged in 1 iterations.
    ExecutionTime = 7.44 s

fieldAverage fieldAverage write:
    Calculating averages

Mean and max Courant Numbers = 340745.0831478293 548908975.7328311
Flow time scale min/max = 1.093077407231242e-15, 2.929882460329985e-06
Smoothed flow time scale min/max = 1.093077407231242e-15, 2.294397318268696e-06

 Time = 0.004853999999999995
LUSGS: iteration 1
bounding h, min: -2.718826050337045e+24 max: 1.681177501210856e+24 average: -3.357857360846155e+20
new min: 10047.03
new max: 803762.4
bounding p, min: 352.7382088643894 max: 2162765.834174724 average: 104081.8840266523
new max: 1000000
bounding rho, min: 0.009992544001454931 max: 39.84238769076186 average: 1.365716668675315
new min: 0.0197456135799149
new max: 9.999999931524757
LUSGS:  Solving for rho,  Initial residual = 58190861.64637074, Final residual = 63.28708165024126, No Iterations 1
LUSGS:  Solving for rhoU, Initial residual = 1.275232871082587e+19, Final residual = 2806057741.95891, No Iterations 1
LUSGS:  Solving for rhoE, Initial residual = 4.77805518810251e+30, Final residual = 2.601329813981302e+21, No Iterations 1
LUSGS: converged in 1 iterations.
    ExecutionTime = 7.45 s

fieldAverage fieldAverage write:
    Calculating averages

Mean and max Courant Numbers = 382037.7692097528 617772856.4756116
Flow time scale min/max = 9.712307585396264e-16, 2.952910351012404e-06
Smoothed flow time scale min/max = 9.712307585396264e-16, 2.369821084931788e-06

 Time = 0.004855999999999996
LUSGS: iteration 1
bounding h, min: -5.053704856357346e+23 max: 1.22217409018935e+24 average: 9.230364947506056e+19
new min: 10047.03
new max: 803762.4
bounding p, min: 319.0451135786582 max: 2162717.797452372 average: 104084.6183884267
new max: 1000000
bounding rho, min: 0.02451000593375374 max: 39.84238769076186 average: 1.365691026650497
new max: 9.999999932878643
LUSGS:  Solving for rho,  Initial residual = 62455160.37306511, Final residual = 63.19252687055248, No Iterations 1
LUSGS:  Solving for rhoU, Initial residual = 1.455688835943106e+19, Final residual = 4131395024.172035, No Iterations 1
LUSGS:  Solving for rhoE, Initial residual = 6.159881930795957e+30, Final residual = 3.961057759119636e+21, No Iterations 1
LUSGS: converged in 1 iterations.
    ExecutionTime = 7.47 s

fieldAverage fieldAverage write:
    Calculating averages

Mean and max Courant Numbers = 194977.903592369 237988431.6674522
Flow time scale min/max = 2.521130946559607e-15, 3.074239563125792e-06
Smoothed flow time scale min/max = 2.521130946559607e-15, 2.443069557551961e-06

 Time = 0.004857999999999996
LUSGS: iteration 1
bounding h, min: -8.015780633335219e+23 max: 2.043437625840003e+24 average: 1.163462334766347e+20
new min: 10047.03
new max: 803762.4
bounding p, min: 262.8628968669678 max: 2162582.021876994 average: 104099.1722695839
new max: 1000000
bounding rho, min: 0.01627848006786437 max: 39.84238769076186 average: 1.365633170067031
new max: 9.999999936393074
LUSGS:  Solving for rho,  Initial residual = 82097178.7678183, Final residual = 63.97575367553386, No Iterations 1
LUSGS:  Solving for rhoU, Initial residual = 1.807262360554077e+19, Final residual = 13567984870.12633, No Iterations 1
LUSGS:  Solving for rhoE, Initial residual = 2.977612568548731e+30, Final residual = 4.914784117683937e+21, No Iterations 1
LUSGS: converged in 1 iterations.
    ExecutionTime = 7.48 s

fieldAverage fieldAverage write:
    Calculating averages

Mean and max Courant Numbers = 262589.4728277393 310684860.1977159
Flow time scale min/max = 1.931217374474468e-15, 3.310453032573078e-06
Smoothed flow time scale min/max = 1.931217374474468e-15, 2.272011073192668e-06

 Time = 0.004859999999999996
LUSGS: iteration 1
bounding h, min: -1.634603014847012e+24 max: 3.683813752719105e+24 average: 1.187213000003137e+20
new min: 10047.03
new max: 803762.4
bounding p, min: 250.336505292283 max: 2162441.431499891 average: 104127.546677584
new max: 1000000
bounding rho, min: 0.01028533363213611 max: 39.84238769076186 average: 1.365563308856733
new max: 9.999999939085173
LUSGS:  Solving for rho,  Initial residual = 77354457.82761008, Final residual = 63.50044740450407, No Iterations 1
LUSGS:  Solving for rhoU, Initial residual = 1.480553238973952e+19, Final residual = 6603340207.182755, No Iterations 1
LUSGS:  Solving for rhoE, Initial residual = 3.447175613768641e+30, Final residual = 5.321106726388604e+21, No Iterations 1
LUSGS: converged in 1 iterations.
    ExecutionTime = 7.5 s

fieldAverage fieldAverage write:
    Calculating averages

Mean and max Courant Numbers = 376721.8549143164 407080461.7348529
Flow time scale min/max = 1.473910090017543e-15, 3.579284133263375e-06
Smoothed flow time scale min/max = 1.473910090017543e-15, 2.245354113762718e-06

 Time = 0.004861999999999997
LUSGS: iteration 1
bounding h, min: -4.584781650695239e+24 max: 8.232353063041515e+24 average: 2.11629552855576e+20
new min: 10047.03
new max: 803762.4
bounding p, min: 244.7141388603651 max: 2162300.429345928 average: 104165.3576167886
new max: 1000000
bounding rho, min: 0.005433512176824363 max: 39.84238769076186 average: 1.365486669133319
new min: 0.01039437151591735
new max: 9.999999941139789
LUSGS:  Solving for rho,  Initial residual = 81167484.55621558, Final residual = 62.38479247044708, No Iterations 1
LUSGS:  Solving for rhoU, Initial residual = 1.929923804509365e+19, Final residual = 7177040616.768306, No Iterations 1
LUSGS:  Solving for rhoE, Initial residual = 7.113147339001196e+30, Final residual = 7.80589105495837e+21, No Iterations 1
LUSGS: converged in 1 iterations.
    ExecutionTime = 7.51 s

fieldAverage fieldAverage write:
    Calculating averages

Mean and max Courant Numbers = 567587.6494804699 539498295.0672358
Flow time scale min/max = 1.112144385785731e-15, 3.731043976569335e-06
Smoothed flow time scale min/max = 1.112144385785731e-15, 2.148355777577561e-06

 Time = 0.004863999999999997
LUSGS: iteration 1
bounding h, min: -7.994281634282526e+23 max: 5.926184860358532e+22 average: -2.357418584380205e+20
new min: 10047.03
new max: 803762.4
bounding p, min: 256.4465972839977 max: 2162251.841235057 average: 104907.0256531444
new max: 1000000
bounding rho, min: 0.03498973137899024 max: 39.84238769076186 average: 1.365905437990213
new max: 9.999999942690108
LUSGS:  Solving for rho,  Initial residual = 85685223.24908692, Final residual = 61.05065489334866, No Iterations 1
LUSGS:  Solving for rhoU, Initial residual = 2.641831899807139e+19, Final residual = 5108898697.699568, No Iterations 1
LUSGS:  Solving for rhoE, Initial residual = 1.579411470224719e+31, Final residual = 1.289427958426315e+22, No Iterations 1
LUSGS: converged in 1 iterations.
    ExecutionTime = 7.52 s

fieldAverage fieldAverage write:
    Calculating averages

Mean and max Courant Numbers = 143912.579332836 223540384.1104772
Flow time scale min/max = 2.684078773450933e-15, 3.582075980589713e-06
Smoothed flow time scale min/max = 2.684078773450933e-15, 2.229960036266244e-06

 Time = 0.004865999999999997
LUSGS: iteration 1
bounding h, min: -9.264059631623313e+23 max: 6.982279079604048e+22 average: -2.957635122412883e+20
new min: 10047.03
new max: 803762.4
bounding p, min: 178.3627347162758 max: 2162193.646994184 average: 104935.309961022
new max: 1000000
bounding rho, min: 0.03260401021113168 max: 39.84238769076186 average: 1.365806876232833
new max: 9.999999946358324
LUSGS:  Solving for rho,  Initial residual = 83785205.19447711, Final residual = 59.10796241540396, No Iterations 1
LUSGS:  Solving for rhoU, Initial residual = 1.324556169203792e+19, Final residual = 18492542798.94901, No Iterations 1
LUSGS:  Solving for rhoE, Initial residual = 2.715881764463588e+30, Final residual = 4.905458259522195e+21, No Iterations 1
LUSGS: converged in 1 iterations.
    ExecutionTime = 7.54 s

fieldAverage fieldAverage write:
    Calculating averages

Mean and max Courant Numbers = 182405.8778053238 270309569.6283947
Flow time scale min/max = 2.21967724200384e-15, 3.400656793389755e-06
Smoothed flow time scale min/max = 2.21967724200384e-15, 2.244140252873242e-06

 Time = 0.004867999999999997
LUSGS: iteration 1
bounding h, min: -1.066586154309896e+24 max: 8.061163808527211e+22 average: -3.656358653150709e+20
new min: 10047.03
new max: 803762.4
bounding p, min: 139.579714934388 max: 2162124.163871509 average: 104946.7262292533
new max: 1000000
bounding rho, min: 0.03139356859869533 max: 39.84238769076186 average: 1.365723871060734
new max: 9.999999949452533
LUSGS:  Solving for rho,  Initial residual = 70711545.38621704, Final residual = 57.64205832487559, No Iterations 1
LUSGS:  Solving for rhoU, Initial residual = 7.142304325901234e+18, Final residual = 11450830284.65749, No Iterations 1
LUSGS:  Solving for rhoE, Initial residual = 1.246162208401839e+30, Final residual = 4.633179264610645e+21, No Iterations 1
LUSGS: converged in 1 iterations.
    ExecutionTime = 7.55 s

fieldAverage fieldAverage write:
    Calculating averages

Mean and max Courant Numbers = 218991.3884126693 341960992.715122
Flow time scale min/max = 1.754586086664695e-15, 3.424175203214027e-06
Smoothed flow time scale min/max = 1.754586086664695e-15, 2.176020053157595e-06

 Time = 0.004869999999999998
LUSGS: iteration 1
bounding h, min: -1.214896608394228e+24 max: 9.112428208741384e+22 average: -4.334329963287368e+20
new min: 10047.03
new max: 803762.4
bounding p, min: 124.6989267607354 max: 2162055.252704024 average: 104935.9133053483
new max: 1000000
bounding rho, min: 0.03075014842486467 max: 39.84238769076186 average: 1.365679065123582
new max: 9.99999995189841
LUSGS:  Solving for rho,  Initial residual = 61739186.70739389, Final residual = 57.28996485086392, No Iterations 1
LUSGS:  Solving for rhoU, Initial residual = 2.953950375377309e+18, Final residual = 8420406447.554678, No Iterations 1
LUSGS:  Solving for rhoE, Initial residual = 3.376233120882522e+29, Final residual = 4.537437744151078e+21, No Iterations 1
LUSGS: converged in 1 iterations.
    ExecutionTime = 7.56 s

fieldAverage fieldAverage write:
    Calculating averages

Mean and max Courant Numbers = 252990.1563410984 407010917.3143365
Flow time scale min/max = 1.474161931476194e-15, 3.38284428169135e-06
Smoothed flow time scale min/max = 1.474161931476194e-15, 2.215852763086242e-06

 Time = 0.004871999999999998
LUSGS: iteration 1
bounding h, min: -1.375712415247329e+24 max: 1.020198241568328e+23 average: -5.059948460364678e+20
new min: 10047.03
new max: 803762.4
bounding p, min: 115.5492844731686 max: 2161986.056490656 average: 104900.5104874821
new max: 1000000
bounding rho, min: 0.0303803250123849 max: 39.84238769076186 average: 1.365669961279224
new max: 9.999999953953377
LUSGS:  Solving for rho,  Initial residual = 55928789.61344567, Final residual = 58.25692648118691, No Iterations 1
LUSGS:  Solving for rhoU, Initial residual = 2.083035391181135e+18, Final residual = 7769654315.063159, No Iterations 1
LUSGS:  Solving for rhoE, Initial residual = 2.240475266431927e+29, Final residual = 4.628411202836493e+21, No Iterations 1
LUSGS: converged in 1 iterations.
    ExecutionTime = 7.57 s

fieldAverage fieldAverage write:
    Calculating averages

Mean and max Courant Numbers = 284591.4220619529 467270200.0437675
Flow time scale min/max = 1.284053637368272e-15, 3.238508982713231e-06
Smoothed flow time scale min/max = 1.284053637368272e-15, 2.151515996082488e-06

 Time = 0.004873999999999998
LUSGS: iteration 1
bounding h, min: -1.549690464393615e+24 max: 1.136591402844655e+23 average: -5.852647058993984e+20
new min: 10047.03
new max: 803762.4
bounding p, min: 108.8289593852611 max: 2161915.331971606 average: 104845.5794252848
new max: 1000000
bounding rho, min: 0.03018677235365705 max: 39.84238769076186 average: 1.365675221058146
new max: 9.999999955743336
LUSGS:  Solving for rho,  Initial residual = 54959547.32668438, Final residual = 59.55919657095082, No Iterations 1
LUSGS:  Solving for rhoU, Initial residual = 1.949309290491657e+18, Final residual = 7363586556.957953, No Iterations 1
LUSGS:  Solving for rhoE, Initial residual = 3.417192824402698e+29, Final residual = 4.864442416540356e+21, No Iterations 1
LUSGS: converged in 1 iterations.
    ExecutionTime = 7.59 s

fieldAverage fieldAverage write:
    Calculating averages

Mean and max Courant Numbers = 314517.675325018 524288153.4838091
Flow time scale min/max = 1.144408844665091e-15, 3.249227646704057e-06
Smoothed flow time scale min/max = 1.144408844665091e-15, 2.175395987816758e-06

 Time = 0.004875999999999998
LUSGS: iteration 1
bounding h, min: -1.736442044162342e+24 max: 1.262812338541015e+23 average: -6.726854385458571e+20
new min: 10047.03
new max: 803762.4
bounding p, min: 103.240189721585 max: 2161849.640100203 average: 104783.2687115648
new max: 1000000
bounding rho, min: 0.03013116938165598 max: 39.84238769076186 average: 1.365687061145911
new max: 9.99999995733863
LUSGS:  Solving for rho,  Initial residual = 60748907.60417266, Final residual = 61.0503820772011, No Iterations 1
LUSGS:  Solving for rhoU, Initial residual = 2.075997924998005e+18, Final residual = 7233558364.268123, No Iterations 1
LUSGS:  Solving for rhoE, Initial residual = 4.82569899273382e+29, Final residual = 5.197672110624073e+21, No Iterations 1
LUSGS: converged in 1 iterations.
    ExecutionTime = 7.6 s

fieldAverage fieldAverage write:
    Calculating averages

Mean and max Courant Numbers = 343130.4848991085 578844022.4899683
Flow time scale min/max = 1.036548667150481e-15, 3.384084356447457e-06
Smoothed flow time scale min/max = 1.036548667150481e-15, 2.171977379896633e-06

 Time = 0.004877999999999999
LUSGS: iteration 1
bounding h, min: -1.934893034896267e+24 max: 1.400759454170263e+23 average: -7.683859753645054e+20
new min: 10047.03
new max: 803762.4
bounding p, min: 98.55693210177249 max: 2161788.314091751 average: 104725.6367860037
new min: 5223.232714609844
new max: 1000000
bounding rho, min: 0.03020036111801243 max: 39.84238769076186 average: 1.365705461485022
new max: 9.999999958783569
LUSGS:  Solving for rho,  Initial residual = 66548035.15626764, Final residual = 62.29836010471142, No Iterations 1
LUSGS:  Solving for rhoU, Initial residual = 2.232140988413565e+18, Final residual = 7233271437.186407, No Iterations 1
LUSGS:  Solving for rhoE, Initial residual = 6.446140045351477e+29, Final residual = 5.605500874760773e+21, No Iterations 1
LUSGS: converged in 1 iterations.
    ExecutionTime = 7.61 s

fieldAverage fieldAverage write:
    Calculating averages

Mean and max Courant Numbers = 370519.7325158303 631229261.084585
Flow time scale min/max = 9.505262778361596e-16, 3.89259321634875e-06
Smoothed flow time scale min/max = 9.505262778361596e-16, 2.137033385377249e-06

 Time = 0.004879999999999999
LUSGS: iteration 1
bounding h, min: -1.914701075954923e+25 max: 2.440532912198278e+23 average: -4.68344165963875e+21
new min: 10047.03
new max: 803762.4
bounding p, min: -45806.50518274051 max: 2161730.990843523 average: 105169.2489027228
new min: 1314.39992733593
new max: 1000000
bounding rho, min: -0.1994651293746642 max: 39.84238769076186 average: 1.365742379563622
new min: 0.1449731627727167
new max: 9.999999960108592
LUSGS:  Solving for rho,  Initial residual = 660431649.3212221, Final residual = 63.39379851671952, No Iterations 1
LUSGS:  Solving for rhoU, Initial residual = 1.3983208056533e+20, Final residual = 66613927356.24332, No Iterations 1
LUSGS:  Solving for rhoE, Initial residual = 4.322193419972661e+31, Final residual = 3.193654318929513e+22, No Iterations 1
LUSGS: converged in 1 iterations.
    ExecutionTime = 7.62 s

fieldAverage fieldAverage write:
    Calculating averages

Mean and max Courant Numbers = 869031.0326810718 1693138596.750556
Flow time scale min/max = 3.543714620595799e-16, 3.428768924196718e-06
Smoothed flow time scale min/max = 3.543714620595799e-16, 2.101747163706127e-06

 Time = 0.004881999999999999
LUSGS: iteration 1
bounding h, min: -4.235232509694094e+23 max: 1.925643862741825e+23 average: -6.012020740385371e+19
new min: 10047.03
new max: 803762.4
bounding p, min: 16969.24006889093 max: 2161708.927775193 average: 105283.9297991863
new max: 1000000
bounding rho, min: 0.1538351490492241 max: 39.84238769076186 average: 1.3663846530122
new max: 9.999999960602583
LUSGS:  Solving for rho,  Initial residual = 219502580.4255844, Final residual = 62.57783815674563, No Iterations 1
LUSGS:  Solving for rhoU, Initial residual = 8.118965479782287e+19, Final residual = 9436129123.770531, No Iterations 1
LUSGS:  Solving for rhoE, Initial residual = 1.668573277149589e+32, Final residual = 3.170792733162289e+22, No Iterations 1
LUSGS: converged in 1 iterations.
    ExecutionTime = 7.64 s

fieldAverage fieldAverage write:
    Calculating averages

Mean and max Courant Numbers = 30995.39617612278 42995094.18752434
Flow time scale min/max = 1.39550804885572e-14, 3.21496600193659e-06
Smoothed flow time scale min/max = 1.39550804885572e-14, 2.093815150682434e-06

 Time = 0.004883999999999999
LUSGS: iteration 1
[3] #0  Foam::error::printStack(Foam::Ostream&) at ??:?
[3] #1  Foam::sigFpe::sigHandler(int) at ??:?
[3] #2  ? in /lib/x86_64-linux-gnu/libpthread.so.0
[3] #3  ? in /home/ofuser/OpenFOAM/ofuser-v2006/platforms/linux64GccDPInt32Opt/bin/myLusgsFoam
[3] #4  __libc_start_main in /lib/x86_64-linux-gnu/libc.so.6
[3] #5  ? in /home/ofuser/OpenFOAM/ofuser-v2006/platforms/linux64GccDPInt32Opt/bin/myLusgsFoam
srun: error: cas603: task 3: Floating point exception
srun: Terminating job step 9604603.0
slurmstepd: error: *** STEP 9604603.0 ON cas603 CANCELLED AT 2022-02-14T18:53:57 ***
srun: error: cas603: tasks 0-2: Terminated
srun: Force Terminated job step 9604603.0
Execution finished
Script done
