/*---------------------------------------------------------------------------*\
| =========                 |                                                 |
| \\      /  F ield         | OpenFOAM: The Open Source CFD Toolbox           |
|  \\    /   O peration     | Version:  v1912                                 |
|   \\  /    A nd           | Website:  www.openfoam.com                      |
|    \\/     M anipulation  |                                                 |
\*---------------------------------------------------------------------------*/
Build  : v1912 OPENFOAM=1912
Arch   : "LSB;label=32;scalar=64"
Exec   : rhoPimpleAdiabaticAcousticFoam-NSCBC
Date   : Jan 20 2022
Time   : 22:19:49
Host   : wjq
PID    : 26696
I/O    : uncollated
Case   : /home/wjq/Desktop/05-A1/prism-NSCBC
nProcs : 1
trapFpe: Floating point exception trapping enabled (FOAM_SIGFPE).
fileModificationChecking : Monitoring run-time modified files using timeStampMaster (fileModificationSkew 10)
allowSystemOperations : Allowing user-supplied system call operations

// * * * * * * * * * * * * * * * * * * * * * * * * * * * * * * * * * * * * * //
Create time

--> FOAM Warning : 
    From function void* Foam::dlLibraryTable::openLibrary(const Foam::fileName&, bool)
    in file db/dynamicLibrary/dlLibraryTable/dlLibraryTable.C at line 65
    Could not load "libNSCBC.so"
/home/wjq/OpenDTEF/wjq-v1912/platforms/linux64GccDPInt32Opt/lib/libNSCBC.so: undefined symbol: _ZNK4Foam17NSCBCFvPatchFieldIdE5writeERNS_7OstreamE
Create mesh for time = 0


PIMPLE: no residual control data found. Calculations will employ 2 corrector loops

Reading thermophysical properties

Selecting thermodynamics package 
{
    type            hePsiThermo;
    mixture         pureMixture;
    transport       const;
    thermo          hConst;
    equationOfState perfectGas;
    specie          specie;
    energy          sensibleInternalEnergy;
}



--> FOAM FATAL IO ERROR: 
Unknown patchField type NSCBC for patch type patch

Valid patchField types :

116
(
MarshakRadiation
MarshakRadiationFixedTemperature
advective
alphatJayatillekeWallFunction
calculated
codedFixedValue
codedMixed
compressible::alphatJayatillekeWallFunction
compressible::alphatWallFunction
compressible::thermalBaffle1D<hConstSolidThermoPhysics>
compressible::thermalBaffle1D<hPowerSolidThermoPhysics>
compressible::turbulentTemperatureCoupledBaffleMixed
compressible::turbulentTemperatureRadCoupledMixed
convectiveHeatTransfer
cyclic
cyclicACMI
cyclicAMI
cyclicSlip
directionMixed
empty
energyJump
energyJumpAMI
epsilonWallFunction
exprFixedValue
exprMixed
externalWallHeatFluxTemperature
extrapolatedCalculated
fWallFunction
fan
fanPressure
fixedEnergy
fixedFluxExtrapolatedPressure
fixedFluxPressure
fixedGradient
fixedIncidentRadiation
fixedInternalValue
fixedJump
fixedJumpAMI
fixedMean
fixedMeanOutletInlet
fixedPressureCompressibleDensity
fixedProfile
fixedUnburntEnthalpy
fixedValue
freestream
freestreamPressure
gradientEnergy
gradientUnburntEnthalpy
greyDiffusiveRadiation
greyDiffusiveRadiationViewFactor
inletOutlet
inletOutletTotalTemperature
interfaceCompression
kLowReWallFunction
kqRWallFunction
lumpedMassWallTemperature
mapped
mappedField
mappedFixedInternalValue
mappedFixedPushedInternalValue
mixed
mixedEnergy
mixedUnburntEnthalpy
nonuniformTransformCyclic
nutLowReWallFunction
nutTabulatedWallFunction
nutUBlendedWallFunction
nutURoughWallFunction
nutUSpaldingWallFunction
nutUWallFunction
nutkRoughWallFunction
nutkWallFunction
omegaWallFunction
outletInlet
outletMachNumberPressure
outletMappedUniformInlet
outletMappedUniformInletHeatAddition
partialSlip
phaseHydrostaticPressure
plenumPressure
porousBafflePressure
prghPressure
prghTotalHydrostaticPressure
prghTotalPressure
processor
processorCyclic
rotatingTotalPressure
scaledFixedValue
sliced
slip
symmetry
symmetryPlane
syringePressure
timeVaryingMappedFixedValue
totalFlowRateAdvectiveDiffusive
totalPressure
totalTemperature
turbulentInlet
turbulentIntensityKineticEnergyInlet
turbulentMixingLengthDissipationRateInlet
turbulentMixingLengthFrequencyInlet
uniformDensityHydrostaticPressure
uniformFixedGradient
uniformFixedValue
uniformInletOutlet
uniformJump
uniformJumpAMI
uniformTotalPressure
v2WallFunction
variableHeightFlowRate
wallHeatTransfer
waveSurfacePressure
waveTransmissive
wedge
wideBandDiffusiveRadiation
zeroGradient
)


file: /home/wjq/Desktop/05-A1/prism-NSCBC/0/p.boundaryField.outlet

    From function static Foam::tmp<Foam::fvPatchField<Type> > Foam::fvPatchField<Type>::New(const Foam::fvPatch&, const Foam::DimensionedField<Type, Foam::volMesh>&, const Foam::dictionary&) [with Type = double]
    in file /home/wjq/Desktop/OpenDTEF/OpenDTEF-v1912/src/finiteVolume/lnInclude/fvPatchFieldNew.C at line 130.

FOAM exiting

