/*---------------------------------------------------------------------------*\
  =========                 |
  \\      /  F ield         | OpenFOAM: The Open Source CFD Toolbox
   \\    /   O peration     | Website:  https://openfoam.org
    \\  /    A nd           | Version:  7
     \\/     M anipulation  |
\*---------------------------------------------------------------------------*/
Build  : 7-83cd285f0e3f
Exec   : postProcess -func sampleDict
Date   : Jan 28 2022
Time   : 20:29:07
Host   : "login1.pi.sjtu.edu.cn"
PID    : 10294
I/O    : collated (maxThreadFileBufferSize 2e+09)
         Threading activated since maxThreadFileBufferSize > 0.
         Requires large enough buffer to collect all data or thread support 
         enabled in MPI. If thread support cannot be enabled, deactivate
         threading by setting maxThreadFileBufferSize to 0 in
         $FOAM_ETC/controlDict
Case   : /lustre/home/acct-medgm/medgm/05-NSCBC/Workspace/run/sod_shock_tube
nProcs : 1
sigFpe : Enabling floating point exception trapping (FOAM_SIGFPE).
fileModificationChecking : Monitoring run-time modified files using timeStamp (fileModificationSkew 10)
allowSystemOperations : Allowing user-supplied system call operations

// * * * * * * * * * * * * * * * * * * * * * * * * * * * * * * * * * * * * * //
Create time

Create mesh for time = 0

Reading set description:
    data

Time = 0

Reading fields:
    volScalarFields: mag(U) p T

Executing functionObjects

Time = 1e-05

Reading fields:
    volScalarFields: mag(U) p T

Executing functionObjects

Time = 2e-05

Reading fields:
    volScalarFields: mag(U) p T

Executing functionObjects

Time = 3e-05

Reading fields:
    volScalarFields: mag(U) p T

Executing functionObjects

Time = 4e-05

Reading fields:
    volScalarFields: mag(U) p T

Executing functionObjects

Time = 5e-05

Reading fields:
    volScalarFields: mag(U) p T

Executing functionObjects

Time = 6e-05

Reading fields:
    volScalarFields: mag(U) p T

Executing functionObjects

Time = 7e-05

Reading fields:
    volScalarFields: mag(U) p T

Executing functionObjects

Time = 8e-05

Reading fields:
    volScalarFields: mag(U) p T

Executing functionObjects

Time = 9e-05

Reading fields:
    volScalarFields: mag(U) p T

Executing functionObjects

Time = 0.0001

Reading fields:
    volScalarFields: mag(U) p T

Executing functionObjects

Time = 0.00011

Reading fields:
    volScalarFields: mag(U) p T

Executing functionObjects

Time = 0.00012

Reading fields:
    volScalarFields: mag(U) p T

Executing functionObjects

Time = 0.00013

Reading fields:
    volScalarFields: mag(U) p T

Executing functionObjects

Time = 0.00014

Reading fields:
    volScalarFields: mag(U) p T

Executing functionObjects

Time = 0.00015

Reading fields:
    volScalarFields: mag(U) p T

Executing functionObjects

Time = 0.00016

Reading fields:
    volScalarFields: mag(U) p T

Executing functionObjects

Time = 0.00017

Reading fields:
    volScalarFields: mag(U) p T

Executing functionObjects

Time = 0.00018

Reading fields:
    volScalarFields: mag(U) p T

Executing functionObjects

Time = 0.00019

Reading fields:
    volScalarFields: mag(U) p T

Executing functionObjects

Time = 0.0002

Reading fields:
    volScalarFields: mag(U) p T

Executing functionObjects

Time = 0.00021

Reading fields:
    volScalarFields: mag(U) p T

Executing functionObjects

Time = 0.00022

Reading fields:
    volScalarFields: mag(U) p T

Executing functionObjects

Time = 0.00023

Reading fields:
    volScalarFields: mag(U) p T

Executing functionObjects

Time = 0.00024

Reading fields:
    volScalarFields: mag(U) p T

Executing functionObjects

Time = 0.00025

Reading fields:
    volScalarFields: mag(U) p T

Executing functionObjects

Time = 0.00026

Reading fields:
    volScalarFields: mag(U) p T

Executing functionObjects

Time = 0.00027

Reading fields:
    volScalarFields: mag(U) p T

Executing functionObjects

Time = 0.00028

Reading fields:
    volScalarFields: mag(U) p T

Executing functionObjects

Time = 0.00029

Reading fields:
    volScalarFields: mag(U) p T

Executing functionObjects

Time = 0.0003

Reading fields:
    volScalarFields: mag(U) p T

Executing functionObjects

Time = 0.00031

Reading fields:
    volScalarFields: mag(U) p T

Executing functionObjects

Time = 0.00032

Reading fields:
    volScalarFields: mag(U) p T

Executing functionObjects

Time = 0.00033

Reading fields:
    volScalarFields: mag(U) p T

Executing functionObjects

Time = 0.00034

Reading fields:
    volScalarFields: mag(U) p T

Executing functionObjects

Time = 0.00035

Reading fields:
    volScalarFields: mag(U) p T

Executing functionObjects

Time = 0.00036

Reading fields:
    volScalarFields: mag(U) p T

Executing functionObjects

Time = 0.00037

Reading fields:
    volScalarFields: mag(U) p T

Executing functionObjects

Time = 0.00038

Reading fields:
    volScalarFields: mag(U) p T

Executing functionObjects

Time = 0.00039

Reading fields:
    volScalarFields: mag(U) p T

Executing functionObjects

Time = 0.0004

Reading fields:
    volScalarFields: mag(U) p T

Executing functionObjects

Time = 0.00041

Reading fields:
    volScalarFields: mag(U) p T

Executing functionObjects

Time = 0.00042

Reading fields:
    volScalarFields: mag(U) p T

Executing functionObjects

Time = 0.00043

Reading fields:
    volScalarFields: mag(U) p T

Executing functionObjects

Time = 0.00044

Reading fields:
    volScalarFields: mag(U) p T

Executing functionObjects

Time = 0.00045

Reading fields:
    volScalarFields: mag(U) p T

Executing functionObjects

Time = 0.00046

Reading fields:
    volScalarFields: mag(U) p T

Executing functionObjects

Time = 0.00047

Reading fields:
    volScalarFields: mag(U) p T

Executing functionObjects

Time = 0.00048

Reading fields:
    volScalarFields: mag(U) p T

Executing functionObjects

Time = 0.00049

Reading fields:
    volScalarFields: mag(U) p T

Executing functionObjects

Time = 0.0005

Reading fields:
    volScalarFields: mag(U) p T

Executing functionObjects

Time = 0.00051

Reading fields:
    volScalarFields: mag(U) p T

Executing functionObjects

Time = 0.00052

Reading fields:
    volScalarFields: mag(U) p T

Executing functionObjects

Time = 0.00053

Reading fields:
    volScalarFields: mag(U) p T

Executing functionObjects

Time = 0.00054

Reading fields:
    volScalarFields: mag(U) p T

Executing functionObjects

Time = 0.00055

Reading fields:
    volScalarFields: mag(U) p T

Executing functionObjects

Time = 0.00056

Reading fields:
    volScalarFields: mag(U) p T

Executing functionObjects

Time = 0.00057

Reading fields:
    volScalarFields: mag(U) p T

Executing functionObjects

Time = 0.00058

Reading fields:
    volScalarFields: mag(U) p T

Executing functionObjects

Time = 0.00059

Reading fields:
    volScalarFields: mag(U) p T

Executing functionObjects

Time = 0.0006

Reading fields:
    volScalarFields: mag(U) p T

Executing functionObjects

Time = 0.00061

Reading fields:
    volScalarFields: mag(U) p T

Executing functionObjects

Time = 0.00062

Reading fields:
    volScalarFields: mag(U) p T

Executing functionObjects

Time = 0.00063

Reading fields:
    volScalarFields: mag(U) p T

Executing functionObjects

Time = 0.00064

Reading fields:
    volScalarFields: mag(U) p T

Executing functionObjects

Time = 0.00065

Reading fields:
    volScalarFields: mag(U) p T

Executing functionObjects

Time = 0.00066

Reading fields:
    volScalarFields: mag(U) p T

Executing functionObjects

Time = 0.00067

Reading fields:
    volScalarFields: mag(U) p T

Executing functionObjects

Time = 0.00068

Reading fields:
    volScalarFields: mag(U) p T

Executing functionObjects

Time = 0.00069

Reading fields:
    volScalarFields: mag(U) p T

Executing functionObjects

Time = 0.0007

Reading fields:
    volScalarFields: mag(U) p T

Executing functionObjects

Time = 0.00071

Reading fields:
    volScalarFields: mag(U) p T

Executing functionObjects

Time = 0.00072

Reading fields:
    volScalarFields: mag(U) p T

Executing functionObjects

Time = 0.00073

Reading fields:
    volScalarFields: mag(U) p T

Executing functionObjects

Time = 0.00074

Reading fields:
    volScalarFields: mag(U) p T

Executing functionObjects

Time = 0.00075

Reading fields:
    volScalarFields: mag(U) p T

Executing functionObjects

Time = 0.00076

Reading fields:
    volScalarFields: mag(U) p T

Executing functionObjects

Time = 0.00077

Reading fields:
    volScalarFields: mag(U) p T

Executing functionObjects

Time = 0.00078

Reading fields:
    volScalarFields: mag(U) p T

Executing functionObjects

Time = 0.00079

Reading fields:
    volScalarFields: mag(U) p T

Executing functionObjects

Time = 0.0008

Reading fields:
    volScalarFields: mag(U) p T

Executing functionObjects

Time = 0.00081

Reading fields:
    volScalarFields: mag(U) p T

Executing functionObjects

Time = 0.00082

Reading fields:
    volScalarFields: mag(U) p T

Executing functionObjects

Time = 0.00083

Reading fields:
    volScalarFields: mag(U) p T

Executing functionObjects

Time = 0.00084

Reading fields:
    volScalarFields: mag(U) p T

Executing functionObjects

Time = 0.00085

Reading fields:
    volScalarFields: mag(U) p T

Executing functionObjects

Time = 0.00086

Reading fields:
    volScalarFields: mag(U) p T

Executing functionObjects

Time = 0.00087

Reading fields:
    volScalarFields: mag(U) p T

Executing functionObjects

Time = 0.00088

Reading fields:
    volScalarFields: mag(U) p T

Executing functionObjects

Time = 0.00089

Reading fields:
    volScalarFields: mag(U) p T

Executing functionObjects

Time = 0.0009

Reading fields:
    volScalarFields: mag(U) p T

Executing functionObjects

Time = 0.00091

Reading fields:
    volScalarFields: mag(U) p T

Executing functionObjects

Time = 0.00092

Reading fields:
    volScalarFields: mag(U) p T

Executing functionObjects

Time = 0.00093

Reading fields:
    volScalarFields: mag(U) p T

Executing functionObjects

Time = 0.00094

Reading fields:
    volScalarFields: mag(U) p T

Executing functionObjects

Time = 0.00095

Reading fields:
    volScalarFields: mag(U) p T

Executing functionObjects

Time = 0.00096

Reading fields:
    volScalarFields: mag(U) p T

Executing functionObjects

Time = 0.00097

Reading fields:
    volScalarFields: mag(U) p T

Executing functionObjects

Time = 0.00098

Reading fields:
    volScalarFields: mag(U) p T

Executing functionObjects

Time = 0.00099

Reading fields:
    volScalarFields: mag(U) p T

Executing functionObjects

Time = 0.001

Reading fields:
    volScalarFields: mag(U) p T

Executing functionObjects

Time = 0.00101

Reading fields:
    volScalarFields: mag(U) p T

Executing functionObjects

Time = 0.00102

Reading fields:
    volScalarFields: mag(U) p T

Executing functionObjects

Time = 0.00103

Reading fields:
    volScalarFields: mag(U) p T

Executing functionObjects

Time = 0.00104

Reading fields:
    volScalarFields: mag(U) p T

Executing functionObjects

Time = 0.00105

Reading fields:
    volScalarFields: mag(U) p T

Executing functionObjects

Time = 0.00106

Reading fields:
    volScalarFields: mag(U) p T

Executing functionObjects

Time = 0.00107

Reading fields:
    volScalarFields: mag(U) p T

Executing functionObjects

Time = 0.00108

Reading fields:
    volScalarFields: mag(U) p T

Executing functionObjects

Time = 0.00109

Reading fields:
    volScalarFields: mag(U) p T

Executing functionObjects

Time = 0.0011

Reading fields:
    volScalarFields: mag(U) p T

Executing functionObjects

Time = 0.00111

Reading fields:
    volScalarFields: mag(U) p T

Executing functionObjects

Time = 0.00112

Reading fields:
    volScalarFields: mag(U) p T

Executing functionObjects

Time = 0.00113

Reading fields:
    volScalarFields: mag(U) p T

Executing functionObjects

Time = 0.00114

Reading fields:
    volScalarFields: mag(U) p T

Executing functionObjects

Time = 0.00115

Reading fields:
    volScalarFields: mag(U) p T

Executing functionObjects

Time = 0.00116

Reading fields:
    volScalarFields: mag(U) p T

Executing functionObjects

Time = 0.00117

Reading fields:
    volScalarFields: mag(U) p T

Executing functionObjects

Time = 0.00118

Reading fields:
    volScalarFields: mag(U) p T

Executing functionObjects

Time = 0.00119

Reading fields:
    volScalarFields: mag(U) p T

Executing functionObjects

Time = 0.0012

Reading fields:
    volScalarFields: mag(U) p T

Executing functionObjects

Time = 0.00121

Reading fields:
    volScalarFields: mag(U) p T

Executing functionObjects

Time = 0.00122

Reading fields:
    volScalarFields: mag(U) p T

Executing functionObjects

Time = 0.00123

Reading fields:
    volScalarFields: mag(U) p T

Executing functionObjects

Time = 0.00124

Reading fields:
    volScalarFields: mag(U) p T

Executing functionObjects

Time = 0.00125

Reading fields:
    volScalarFields: mag(U) p T

Executing functionObjects

Time = 0.00126

Reading fields:
    volScalarFields: mag(U) p T

Executing functionObjects

Time = 0.00127

Reading fields:
    volScalarFields: mag(U) p T

Executing functionObjects

Time = 0.00128

Reading fields:
    volScalarFields: mag(U) p T

Executing functionObjects

Time = 0.00129

Reading fields:
    volScalarFields: mag(U) p T

Executing functionObjects

Time = 0.0013

Reading fields:
    volScalarFields: mag(U) p T

Executing functionObjects

Time = 0.00131

Reading fields:
    volScalarFields: mag(U) p T

Executing functionObjects

Time = 0.00132

Reading fields:
    volScalarFields: mag(U) p T

Executing functionObjects

Time = 0.00133

Reading fields:
    volScalarFields: mag(U) p T

Executing functionObjects

Time = 0.00134

Reading fields:
    volScalarFields: mag(U) p T

Executing functionObjects

Time = 0.00135

Reading fields:
    volScalarFields: mag(U) p T

Executing functionObjects

Time = 0.00136

Reading fields:
    volScalarFields: mag(U) p T

Executing functionObjects

Time = 0.00137

Reading fields:
    volScalarFields: mag(U) p T

Executing functionObjects

Time = 0.00138

Reading fields:
    volScalarFields: mag(U) p T

Executing functionObjects

Time = 0.00139

Reading fields:
    volScalarFields: mag(U) p T

Executing functionObjects

Time = 0.0014

Reading fields:
    volScalarFields: mag(U) p T

Executing functionObjects

Time = 0.00141

Reading fields:
    volScalarFields: mag(U) p T

Executing functionObjects

Time = 0.00142

Reading fields:
    volScalarFields: mag(U) p T

Executing functionObjects

Time = 0.00143

Reading fields:
    volScalarFields: mag(U) p T

Executing functionObjects

Time = 0.00144

Reading fields:
    volScalarFields: mag(U) p T

Executing functionObjects

Time = 0.00145

Reading fields:
    volScalarFields: mag(U) p T

Executing functionObjects

Time = 0.00146

Reading fields:
    volScalarFields: mag(U) p T

Executing functionObjects

Time = 0.00147

Reading fields:
    volScalarFields: mag(U) p T

Executing functionObjects

Time = 0.00148

Reading fields:
    volScalarFields: mag(U) p T

Executing functionObjects

Time = 0.00149

Reading fields:
    volScalarFields: mag(U) p T

Executing functionObjects

Time = 0.0015

Reading fields:
    volScalarFields: mag(U) p T

Executing functionObjects

Time = 0.00151

Reading fields:
    volScalarFields: mag(U) p T

Executing functionObjects

Time = 0.00152

Reading fields:
    volScalarFields: mag(U) p T

Executing functionObjects

Time = 0.00153

Reading fields:
    volScalarFields: mag(U) p T

Executing functionObjects

Time = 0.00154

Reading fields:
    volScalarFields: mag(U) p T

Executing functionObjects

Time = 0.00155

Reading fields:
    volScalarFields: mag(U) p T

Executing functionObjects

Time = 0.00156

Reading fields:
    volScalarFields: mag(U) p T

Executing functionObjects

Time = 0.00157

Reading fields:
    volScalarFields: mag(U) p T

Executing functionObjects

Time = 0.00158

Reading fields:
    volScalarFields: mag(U) p T

Executing functionObjects

Time = 0.00159

Reading fields:
    volScalarFields: mag(U) p T

Executing functionObjects

Time = 0.0016

Reading fields:
    volScalarFields: mag(U) p T

Executing functionObjects

Time = 0.00161

Reading fields:
    volScalarFields: mag(U) p T

Executing functionObjects

Time = 0.00162

Reading fields:
    volScalarFields: mag(U) p T

Executing functionObjects

Time = 0.00163

Reading fields:
    volScalarFields: mag(U) p T

Executing functionObjects

Time = 0.00164

Reading fields:
    volScalarFields: mag(U) p T

Executing functionObjects

Time = 0.00165

Reading fields:
    volScalarFields: mag(U) p T

Executing functionObjects

Time = 0.00166

Reading fields:
    volScalarFields: mag(U) p T

Executing functionObjects

Time = 0.00167

Reading fields:
    volScalarFields: mag(U) p T

Executing functionObjects

Time = 0.00168

Reading fields:
    volScalarFields: mag(U) p T

Executing functionObjects

Time = 0.00169

Reading fields:
    volScalarFields: mag(U) p T

Executing functionObjects

Time = 0.0017

Reading fields:
    volScalarFields: mag(U) p T

Executing functionObjects

Time = 0.00171

Reading fields:
    volScalarFields: mag(U) p T

Executing functionObjects

Time = 0.00172

Reading fields:
    volScalarFields: mag(U) p T

Executing functionObjects

Time = 0.00173

Reading fields:
    volScalarFields: mag(U) p T

Executing functionObjects

Time = 0.00174

Reading fields:
    volScalarFields: mag(U) p T

Executing functionObjects

Time = 0.00175

Reading fields:
    volScalarFields: mag(U) p T

Executing functionObjects

Time = 0.00176

Reading fields:
    volScalarFields: mag(U) p T

Executing functionObjects

Time = 0.00177

Reading fields:
    volScalarFields: mag(U) p T

Executing functionObjects

Time = 0.00178

Reading fields:
    volScalarFields: mag(U) p T

Executing functionObjects

Time = 0.00179

Reading fields:
    volScalarFields: mag(U) p T

Executing functionObjects

Time = 0.0018

Reading fields:
    volScalarFields: mag(U) p T

Executing functionObjects

Time = 0.00181

Reading fields:
    volScalarFields: mag(U) p T

Executing functionObjects

Time = 0.00182

Reading fields:
    volScalarFields: mag(U) p T

Executing functionObjects

Time = 0.00183

Reading fields:
    volScalarFields: mag(U) p T

Executing functionObjects

Time = 0.00184

Reading fields:
    volScalarFields: mag(U) p T

Executing functionObjects

Time = 0.00185

Reading fields:
    volScalarFields: mag(U) p T

Executing functionObjects

Time = 0.00186

Reading fields:
    volScalarFields: mag(U) p T

Executing functionObjects

Time = 0.00187

Reading fields:
    volScalarFields: mag(U) p T

Executing functionObjects

Time = 0.00188

Reading fields:
    volScalarFields: mag(U) p T

Executing functionObjects

Time = 0.00189

Reading fields:
    volScalarFields: mag(U) p T

Executing functionObjects

Time = 0.0019

Reading fields:
    volScalarFields: mag(U) p T

Executing functionObjects

Time = 0.00191

Reading fields:
    volScalarFields: mag(U) p T

Executing functionObjects

Time = 0.00192

Reading fields:
    volScalarFields: mag(U) p T

Executing functionObjects

Time = 0.00193

Reading fields:
    volScalarFields: mag(U) p T

Executing functionObjects

Time = 0.00194

Reading fields:
    volScalarFields: mag(U) p T

Executing functionObjects

Time = 0.00195

Reading fields:
    volScalarFields: mag(U) p T

Executing functionObjects

Time = 0.00196

Reading fields:
    volScalarFields: mag(U) p T

Executing functionObjects

Time = 0.00197

Reading fields:
    volScalarFields: mag(U) p T

Executing functionObjects

Time = 0.00198

Reading fields:
    volScalarFields: mag(U) p T

Executing functionObjects

Time = 0.00199

Reading fields:
    volScalarFields: mag(U) p T

Executing functionObjects

Time = 0.002

Reading fields:
    volScalarFields: mag(U) p T

Executing functionObjects

Time = 0.00201

Reading fields:
    volScalarFields: mag(U) p T

Executing functionObjects

Time = 0.00202

Reading fields:
    volScalarFields: mag(U) p T

Executing functionObjects

Time = 0.00203

Reading fields:
    volScalarFields: mag(U) p T

Executing functionObjects

Time = 0.00204

Reading fields:
    volScalarFields: mag(U) p T

Executing functionObjects

Time = 0.00205

Reading fields:
    volScalarFields: mag(U) p T

Executing functionObjects

Time = 0.00206

Reading fields:
    volScalarFields: mag(U) p T

Executing functionObjects

Time = 0.00207

Reading fields:
    volScalarFields: mag(U) p T

Executing functionObjects

Time = 0.00208

Reading fields:
    volScalarFields: mag(U) p T

Executing functionObjects

Time = 0.00209

Reading fields:
    volScalarFields: mag(U) p T

Executing functionObjects

Time = 0.0021

Reading fields:
    volScalarFields: mag(U) p T

Executing functionObjects

Time = 0.00211

Reading fields:
    volScalarFields: mag(U) p T

Executing functionObjects

Time = 0.00212

Reading fields:
    volScalarFields: mag(U) p T

Executing functionObjects

Time = 0.00213

Reading fields:
    volScalarFields: mag(U) p T

Executing functionObjects

Time = 0.00214

Reading fields:
    volScalarFields: mag(U) p T

Executing functionObjects

Time = 0.00215

Reading fields:
    volScalarFields: mag(U) p T

Executing functionObjects

Time = 0.00216

Reading fields:
    volScalarFields: mag(U) p T

Executing functionObjects

Time = 0.00217

Reading fields:
    volScalarFields: mag(U) p T

Executing functionObjects

Time = 0.00218

Reading fields:
    volScalarFields: mag(U) p T

Executing functionObjects

Time = 0.00219

Reading fields:
    volScalarFields: mag(U) p T

Executing functionObjects

Time = 0.0022

Reading fields:
    volScalarFields: mag(U) p T

Executing functionObjects

Time = 0.00221

Reading fields:
    volScalarFields: mag(U) p T

Executing functionObjects

Time = 0.00222

Reading fields:
    volScalarFields: mag(U) p T

Executing functionObjects

Time = 0.00223

Reading fields:
    volScalarFields: mag(U) p T

Executing functionObjects

Time = 0.00224

Reading fields:
    volScalarFields: mag(U) p T

Executing functionObjects

Time = 0.00225

Reading fields:
    volScalarFields: mag(U) p T

Executing functionObjects

Time = 0.00226

Reading fields:
    volScalarFields: mag(U) p T

Executing functionObjects

Time = 0.00227

Reading fields:
    volScalarFields: mag(U) p T

Executing functionObjects

Time = 0.00228

Reading fields:
    volScalarFields: mag(U) p T

Executing functionObjects

Time = 0.00229

Reading fields:
    volScalarFields: mag(U) p T

Executing functionObjects

Time = 0.0023

Reading fields:
    volScalarFields: mag(U) p T

Executing functionObjects

Time = 0.00231

Reading fields:
    volScalarFields: mag(U) p T

Executing functionObjects

Time = 0.00232

Reading fields:
    volScalarFields: mag(U) p T

Executing functionObjects

Time = 0.00233

Reading fields:
    volScalarFields: mag(U) p T

Executing functionObjects

Time = 0.00234

Reading fields:
    volScalarFields: mag(U) p T

Executing functionObjects

Time = 0.00235

Reading fields:
    volScalarFields: mag(U) p T

Executing functionObjects

Time = 0.00236

Reading fields:
    volScalarFields: mag(U) p T

Executing functionObjects

Time = 0.00237

Reading fields:
    volScalarFields: mag(U) p T

Executing functionObjects

Time = 0.00238

Reading fields:
    volScalarFields: mag(U) p T

Executing functionObjects

Time = 0.00239

Reading fields:
    volScalarFields: mag(U) p T

Executing functionObjects

Time = 0.0024

Reading fields:
    volScalarFields: mag(U) p T

Executing functionObjects

Time = 0.00241

Reading fields:
    volScalarFields: mag(U) p T

Executing functionObjects

Time = 0.00242

Reading fields:
    volScalarFields: mag(U) p T

Executing functionObjects

Time = 0.00243

Reading fields:
    volScalarFields: mag(U) p T

Executing functionObjects

Time = 0.00244

Reading fields:
    volScalarFields: mag(U) p T

Executing functionObjects

Time = 0.00245

Reading fields:
    volScalarFields: mag(U) p T

Executing functionObjects

Time = 0.00246

Reading fields:
    volScalarFields: mag(U) p T

Executing functionObjects

Time = 0.00247

Reading fields:
    volScalarFields: mag(U) p T

Executing functionObjects

Time = 0.00248

Reading fields:
    volScalarFields: mag(U) p T

Executing functionObjects

Time = 0.00249

Reading fields:
    volScalarFields: mag(U) p T

Executing functionObjects

Time = 0.0025

Reading fields:
    volScalarFields: mag(U) p T

Executing functionObjects

Time = 0.00251

Reading fields:
    volScalarFields: mag(U) p T

Executing functionObjects

Time = 0.00252

Reading fields:
    volScalarFields: mag(U) p T

Executing functionObjects

Time = 0.00253

Reading fields:
    volScalarFields: mag(U) p T

Executing functionObjects

Time = 0.00254

Reading fields:
    volScalarFields: mag(U) p T

Executing functionObjects

Time = 0.00255

Reading fields:
    volScalarFields: mag(U) p T

Executing functionObjects

Time = 0.00256

Reading fields:
    volScalarFields: mag(U) p T

Executing functionObjects

Time = 0.00257

Reading fields:
    volScalarFields: mag(U) p T

Executing functionObjects

Time = 0.00258

Reading fields:
    volScalarFields: mag(U) p T

Executing functionObjects

Time = 0.00259

Reading fields:
    volScalarFields: mag(U) p T

Executing functionObjects

Time = 0.0026

Reading fields:
    volScalarFields: mag(U) p T

Executing functionObjects

Time = 0.00261

Reading fields:
    volScalarFields: mag(U) p T

Executing functionObjects

Time = 0.00262

Reading fields:
    volScalarFields: mag(U) p T

Executing functionObjects

Time = 0.00263

Reading fields:
    volScalarFields: mag(U) p T

Executing functionObjects

Time = 0.00264

Reading fields:
    volScalarFields: mag(U) p T

Executing functionObjects

Time = 0.00265

Reading fields:
    volScalarFields: mag(U) p T

Executing functionObjects

Time = 0.00266

Reading fields:
    volScalarFields: mag(U) p T

Executing functionObjects

Time = 0.00267

Reading fields:
    volScalarFields: mag(U) p T

Executing functionObjects

Time = 0.00268

Reading fields:
    volScalarFields: mag(U) p T

Executing functionObjects

Time = 0.00269

Reading fields:
    volScalarFields: mag(U) p T

Executing functionObjects

Time = 0.0027

Reading fields:
    volScalarFields: mag(U) p T

Executing functionObjects

Time = 0.00271

Reading fields:
    volScalarFields: mag(U) p T

Executing functionObjects

Time = 0.00272

Reading fields:
    volScalarFields: mag(U) p T

Executing functionObjects

Time = 0.00273

Reading fields:
    volScalarFields: mag(U) p T

Executing functionObjects

Time = 0.00274

Reading fields:
    volScalarFields: mag(U) p T

Executing functionObjects

Time = 0.00275

Reading fields:
    volScalarFields: mag(U) p T

Executing functionObjects

Time = 0.00276

Reading fields:
    volScalarFields: mag(U) p T

Executing functionObjects

Time = 0.00277

Reading fields:
    volScalarFields: mag(U) p T

Executing functionObjects

Time = 0.00278

Reading fields:
    volScalarFields: mag(U) p T

Executing functionObjects

Time = 0.00279

Reading fields:
    volScalarFields: mag(U) p T

Executing functionObjects

Time = 0.0028

Reading fields:
    volScalarFields: mag(U) p T

Executing functionObjects

Time = 0.00281

Reading fields:
    volScalarFields: mag(U) p T

Executing functionObjects

Time = 0.00282

Reading fields:
    volScalarFields: mag(U) p T

Executing functionObjects

Time = 0.00283

Reading fields:
    volScalarFields: mag(U) p T

Executing functionObjects

Time = 0.00284

Reading fields:
    volScalarFields: mag(U) p T

Executing functionObjects

Time = 0.00285

Reading fields:
    volScalarFields: mag(U) p T

Executing functionObjects

Time = 0.00286

Reading fields:
    volScalarFields: mag(U) p T

Executing functionObjects

Time = 0.00287

Reading fields:
    volScalarFields: mag(U) p T

Executing functionObjects

Time = 0.00288

Reading fields:
    volScalarFields: mag(U) p T

Executing functionObjects

Time = 0.00289

Reading fields:
    volScalarFields: mag(U) p T

Executing functionObjects

Time = 0.0029

Reading fields:
    volScalarFields: mag(U) p T

Executing functionObjects

Time = 0.00291

Reading fields:
    volScalarFields: mag(U) p T

Executing functionObjects

Time = 0.00292

Reading fields:
    volScalarFields: mag(U) p T

Executing functionObjects

Time = 0.00293

Reading fields:
    volScalarFields: mag(U) p T

Executing functionObjects

Time = 0.00294

Reading fields:
    volScalarFields: mag(U) p T

Executing functionObjects

Time = 0.00295

Reading fields:
    volScalarFields: mag(U) p T

Executing functionObjects

Time = 0.00296

Reading fields:
    volScalarFields: mag(U) p T

Executing functionObjects

Time = 0.00297

Reading fields:
    volScalarFields: mag(U) p T

Executing functionObjects

Time = 0.00298

Reading fields:
    volScalarFields: mag(U) p T

Executing functionObjects

Time = 0.00299

Reading fields:
    volScalarFields: mag(U) p T

Executing functionObjects

Time = 0.003

Reading fields:
    volScalarFields: mag(U) p T

Executing functionObjects

Time = 0.00301

Reading fields:
    volScalarFields: mag(U) p T

Executing functionObjects

Time = 0.00302

Reading fields:
    volScalarFields: mag(U) p T

Executing functionObjects

Time = 0.00303

Reading fields:
    volScalarFields: mag(U) p T

Executing functionObjects

Time = 0.00304

Reading fields:
    volScalarFields: mag(U) p T

Executing functionObjects

Time = 0.00305

Reading fields:
    volScalarFields: mag(U) p T

Executing functionObjects

Time = 0.00306

Reading fields:
    volScalarFields: mag(U) p T

Executing functionObjects

Time = 0.00307

Reading fields:
    volScalarFields: mag(U) p T

Executing functionObjects

Time = 0.00308

Reading fields:
    volScalarFields: mag(U) p T

Executing functionObjects

Time = 0.00309

Reading fields:
    volScalarFields: mag(U) p T

Executing functionObjects

Time = 0.0031

Reading fields:
    volScalarFields: mag(U) p T

Executing functionObjects

Time = 0.00311

Reading fields:
    volScalarFields: mag(U) p T

Executing functionObjects

Time = 0.00312

Reading fields:
    volScalarFields: mag(U) p T

Executing functionObjects

Time = 0.00313

Reading fields:
    volScalarFields: mag(U) p T

Executing functionObjects

Time = 0.00314

Reading fields:
    volScalarFields: mag(U) p T

Executing functionObjects

Time = 0.00315

Reading fields:
    volScalarFields: mag(U) p T

Executing functionObjects

Time = 0.00316

Reading fields:
    volScalarFields: mag(U) p T

Executing functionObjects

Time = 0.00317

Reading fields:
    volScalarFields: mag(U) p T

Executing functionObjects

Time = 0.00318

Reading fields:
    volScalarFields: mag(U) p T

Executing functionObjects

Time = 0.00319

Reading fields:
    volScalarFields: mag(U) p T

Executing functionObjects

Time = 0.0032

Reading fields:
    volScalarFields: mag(U) p T

Executing functionObjects

Time = 0.00321

Reading fields:
    volScalarFields: mag(U) p T

Executing functionObjects

Time = 0.00322

Reading fields:
    volScalarFields: mag(U) p T

Executing functionObjects

Time = 0.00323

Reading fields:
    volScalarFields: mag(U) p T

Executing functionObjects

Time = 0.00324

Reading fields:
    volScalarFields: mag(U) p T

Executing functionObjects

Time = 0.00325

Reading fields:
    volScalarFields: mag(U) p T

Executing functionObjects

Time = 0.00326

Reading fields:
    volScalarFields: mag(U) p T

Executing functionObjects

Time = 0.00327

Reading fields:
    volScalarFields: mag(U) p T

Executing functionObjects

Time = 0.00328

Reading fields:
    volScalarFields: mag(U) p T

Executing functionObjects

Time = 0.00329

Reading fields:
    volScalarFields: mag(U) p T

Executing functionObjects

Time = 0.0033

Reading fields:
    volScalarFields: mag(U) p T

Executing functionObjects

Time = 0.00331

Reading fields:
    volScalarFields: mag(U) p T

Executing functionObjects

Time = 0.00332

Reading fields:
    volScalarFields: mag(U) p T

Executing functionObjects

Time = 0.00333

Reading fields:
    volScalarFields: mag(U) p T

Executing functionObjects

Time = 0.00334

Reading fields:
    volScalarFields: mag(U) p T

Executing functionObjects

Time = 0.00335

Reading fields:
    volScalarFields: mag(U) p T

Executing functionObjects

Time = 0.00336

Reading fields:
    volScalarFields: mag(U) p T

Executing functionObjects

Time = 0.00337

Reading fields:
    volScalarFields: mag(U) p T

Executing functionObjects

Time = 0.00338

Reading fields:
    volScalarFields: mag(U) p T

Executing functionObjects

Time = 0.00339

Reading fields:
    volScalarFields: mag(U) p T

Executing functionObjects

Time = 0.0034

Reading fields:
    volScalarFields: mag(U) p T

Executing functionObjects

Time = 0.00341

Reading fields:
    volScalarFields: mag(U) p T

Executing functionObjects

Time = 0.00342

Reading fields:
    volScalarFields: mag(U) p T

Executing functionObjects

Time = 0.00343

Reading fields:
    volScalarFields: mag(U) p T

Executing functionObjects

Time = 0.00344

Reading fields:
    volScalarFields: mag(U) p T

Executing functionObjects

Time = 0.00345

Reading fields:
    volScalarFields: mag(U) p T

Executing functionObjects

Time = 0.00346

Reading fields:
    volScalarFields: mag(U) p T

Executing functionObjects

Time = 0.00347

Reading fields:
    volScalarFields: mag(U) p T

Executing functionObjects

Time = 0.00348

Reading fields:
    volScalarFields: mag(U) p T

Executing functionObjects

Time = 0.00349

Reading fields:
    volScalarFields: mag(U) p T

Executing functionObjects

Time = 0.0035

Reading fields:
    volScalarFields: mag(U) p T

Executing functionObjects

End

