/*---------------------------------------------------------------------------*\
| =========                 |                                                 |
| \\      /  F ield         | OpenFOAM: The Open Source CFD Toolbox           |
|  \\    /   O peration     | Version:  v2006                                 |
|   \\  /    A nd           | Website:  www.openfoam.com                      |
|    \\/     M anipulation  |                                                 |
\*---------------------------------------------------------------------------*/
Build  : _b45f8f6f58-20200629 OPENFOAM=2006
Arch   : "LSB;label=32;scalar=64"
Exec   : /opt/OpenFOAM/OpenFOAM-v2006/platforms/linux64GccDPInt32Opt/bin/snappyHexMesh -parallel -overwrite
Date   : Feb 18 2022
Time   : 00:51:34
Host   : node310.pi.sjtu.edu.cn
PID    : 2883549
I/O    : collated (maxThreadFileBufferSize 0)
         Threading not activated since maxThreadFileBufferSize = 0.
         Writing may run slowly for large file sizes.
Case   : /dssg/home/acct-medgm/medgm/05-NSCBC-Z32/Workspace/run/sineWaveDampingPimpleFoam3Dduct-finer
nProcs : 64
Hosts  :
(
    (node310.pi.sjtu.edu.cn 64)
)
Pstream initialized with:
    floatTransfer      : 0
    nProcsSimpleSum    : 0
    commsType          : nonBlocking
    polling iterations : 0
trapFpe: Floating point exception trapping enabled (FOAM_SIGFPE).
fileModificationChecking : Monitoring run-time modified files using timeStamp (fileModificationSkew 5, maxFileModificationPolls 20)
allowSystemOperations : Allowing user-supplied system call operations

// * * * * * * * * * * * * * * * * * * * * * * * * * * * * * * * * * * * * * //
Create time

Create mesh for time = 0

Read mesh in = 0.12 s

Overall mesh bounding box  : (-0.5 -0.5 -1) (0.5 0.5 1)
Relative tolerance         : 1e-06
Absolute matching distance : 2.449489742783178e-06

Reading refinement surfaces.
Read refinement surfaces in = 0 s

Reading refinement shells.
Refinement level 3 for all cells inside box
Read refinement shells in = 0 s

Setting refinement level of surface to be consistent with shells.
For geometry body.stl detected 0 uncached triangles out of 344
Checked shell refinement in = 0.05 s

Reading features.
Read edgeMesh body.eMesh
    points      : 172
    edges       : 172
    boundingBox : (-0.300000011920929 -0.2997998893260956 -2) (0.300000011920929 0.2997998893260956 2)

Refinement level according to distance to "body.eMesh" (172 points, 172 edges).
    level 4 for all cells within 0 metre.
Read features in = 0.06 s


Determining initial surface intersections
-----------------------------------------

Edge intersection testing:
    Number of edges             : 6720
    Number of edges to retest   : 0
    Number of intersected edges : 0
Edge intersection testing:
    Number of edges             : 6720
    Number of edges to retest   : 6720
    Number of intersected edges : 512
Calculated surface intersections in = 0.9 s

Initial mesh : cells:2048  faces:6720  points:2673
Cells per refinement level:
    0	2048

Adding patches for surface regions
----------------------------------

Patch Type                Region                        
----- ----                ------                        
body:

3     wall                body                          

Added patches in = 0 s

Edge intersection testing:
    Number of edges             : 6720
    Number of edges to retest   : 0
    Number of intersected edges : 512
Selecting decompositionMethod scotch [64]

Refinement phase
----------------

Found point (0.1 0.001 0.001) in cell 0 on processor 50

Feature refinement iteration 0
------------------------------

Marked for refinement due to explicit features             : 0 cells.
Determined cells to refine in = 0 s
Selected for feature refinement : 0 cells (out of 2048)
Stopping refining since too few cells selected.


Surface refinement iteration 0
------------------------------

Marked for refinement due to surface intersection          : 896 cells.
Determined cells to refine in = 0 s
Selected for refinement : 896 cells (out of 2048)
Edge intersection testing:
    Number of edges             : 27156
    Number of edges to retest   : 25992
    Number of intersected edges : 2560
Refined mesh in = 0.01 s
After refinement surface refinement iteration 0 : cells:8320  faces:27156  points:10581
Cells per refinement level:
    0	1152
    1	7168
Balanced mesh in = 0.06 s
After balancing surface refinement iteration 0 : cells:8320  faces:27156  points:10581
Cells per refinement level:
    0	1152
    1	7168

Surface refinement iteration 1
------------------------------

Marked for refinement due to surface intersection          : 3328 cells.
Determined cells to refine in = 0 s
Selected for refinement : 3584 cells (out of 8320)
Edge intersection testing:
    Number of edges             : 110664
    Number of edges to retest   : 104988
    Number of intersected edges : 10240
Refined mesh in = 0 s
After refinement surface refinement iteration 1 : cells:33408  faces:110664  points:43957
Cells per refinement level:
    0	896
    1	5888
    2	26624
Skipping balancing since max unbalance 0 is less than allowable 0.1

Surface refinement iteration 2
------------------------------

Marked for refinement due to surface intersection          : 13824 cells.
Determined cells to refine in = 0 s
Selected for refinement : 15488 cells (out of 33408)
Edge intersection testing:
    Number of edges             : 466272
    Number of edges to retest   : 447884
    Number of intersected edges : 38912
Refined mesh in = 0.02 s
After refinement surface refinement iteration 2 : cells:141824  faces:466272  points:182809
Cells per refinement level:
    0	768
    1	5376
    2	25088
    3	110592
Skipping balancing since max unbalance 0 is less than allowable 0.1

Surface refinement iteration 3
------------------------------

Marked for refinement due to surface intersection          : 56320 cells.
Determined cells to refine in = 0 s
Selected for refinement : 64000 cells (out of 141824)
Edge intersection testing:
    Number of edges             : 1926348
    Number of edges to retest   : 1873580
    Number of intersected edges : 155648
Refined mesh in = 0.07000000000000001 s
After refinement surface refinement iteration 3 : cells:589824  faces:1926348  points:747033
Cells per refinement level:
    0	512
    1	6656
    2	24576
    3	107520
    4	450560
Skipping balancing since max unbalance 0 is less than allowable 0.1

Surface refinement iteration 4
------------------------------

Marked for refinement due to surface intersection          : 0 cells.
Determined cells to refine in = 0.01 s
Selected for refinement : 0 cells (out of 589824)
Stopping refining since too few cells selected.


Removing mesh beyond surface intersections
------------------------------------------

Setting cellZones according to locationsInMesh:
Location : (0.1 0.001 0.001)
    cellZone : none

For cellZone none found point (0.1 0.001 0.001) in global region 1 out of 2 regions.
Keeping all cells containing inside points
Selected for keeping : 589824 cells.
Edge intersection testing:
    Number of edges             : 1926348
    Number of edges to retest   : 0
    Number of intersected edges : 155648
Setting cellZones according to locationsInMesh:
Location : (0.1 0.001 0.001)
    cellZone : none

For cellZone none found point (0.1 0.001 0.001) in global region 1 out of 2 regions.
Keeping all cells containing inside points
Selected for keeping : 459520 cells.
Edge intersection testing:
    Number of edges             : 1568844
    Number of edges to retest   : 185088
    Number of intersected edges : 155648

Shell refinement iteration 0
----------------------------

Marked for refinement due to distance to explicit features : 0 cells.
Marked for refinement due to refinement shells             : 20992 cells.
Determined cells to refine in = 0.08 s
Selected for internal refinement : 20992 cells (out of 459520)
Edge intersection testing:
    Number of edges             : 2018676
    Number of edges to retest   : 711460
    Number of intersected edges : 155648
Refined mesh in = 0.06 s
After refinement shell refinement iteration 0 : cells:606464  faces:2018676  points:802973
Cells per refinement level:
    0	0
    1	4096
    2	40960
    3	183808
    4	377600
Skipping balancing since max unbalance 0 is less than allowable 0.1

Shell refinement iteration 1
----------------------------

Marked for refinement due to distance to explicit features : 0 cells.
Marked for refinement due to refinement shells             : 45056 cells.
Determined cells to refine in = 0.01 s
Selected for internal refinement : 45056 cells (out of 606464)
Edge intersection testing:
    Number of edges             : 2998548
    Number of edges to retest   : 1284236
    Number of intersected edges : 155648
Refined mesh in = 0.08 s
After refinement shell refinement iteration 1 : cells:921856  faces:2998548  points:1150461
Cells per refinement level:
    0	0
    1	0
    2	32768
    3	511488
    4	377600
Skipping balancing since max unbalance 0 is less than allowable 0.1

Shell refinement iteration 2
----------------------------

Marked for refinement due to distance to explicit features : 0 cells.
Marked for refinement due to refinement shells             : 32768 cells.
Determined cells to refine in = 0.02 s
Selected for internal refinement : 32768 cells (out of 921856)
Edge intersection testing:
    Number of edges             : 3690516
    Number of edges to retest   : 942204
    Number of intersected edges : 155648
Refined mesh in = 0.11 s
After refinement shell refinement iteration 2 : cells:1151232  faces:3690516  points:1382765
Cells per refinement level:
    0	0
    1	0
    2	0
    3	773632
    4	377600
Skipping balancing since max unbalance 0 is less than allowable 0.1

Shell refinement iteration 3
----------------------------

Marked for refinement due to distance to explicit features : 0 cells.
Marked for refinement due to refinement shells             : 0 cells.
Determined cells to refine in = 0.02 s
Selected for internal refinement : 0 cells (out of 1151232)
Stopping refining since too few cells selected.


Dangling coarse cells refinement iteration 0
--------------------------------------------

Determined cells to refine in = 0 s
Selected for refinement : 0 cells (out of 1151232)
Stopping refining since too few cells selected.


Dangling coarse cells refinement iteration 0
--------------------------------------------

Determined cells to refine in = 0 s
Selected for refinement : 0 cells (out of 1151232)
Stopping refining since too few cells selected.


Refinement transition refinement iteration 0
--------------------------------------------

Determined cells to refine in = 0 s
Selected for refinement : 0 cells (out of 1151232)
Stopping refining since too few cells selected.


Splitting mesh at surface intersections
---------------------------------------

Introducing baffles for 155648 faces that are intersected by the surface.

Setting cellZones according to locationsInMesh:
Location : (0.1 0.001 0.001)
    cellZone : none

For cellZone none found point (0.1 0.001 0.001) in global region 1 out of 2 regions.
Edge intersection testing:
    Number of edges             : 3846164
    Number of edges to retest   : 981428
    Number of intersected edges : 311296
Created baffles in = 0.09 s


After introducing baffles : cells:1151232  faces:3846164  points:1382765
Cells per refinement level:
    0	0
    1	0
    2	0
    3	773632
    4	377600

Introducing baffles to block off problem cells
----------------------------------------------

markFacesOnProblemCells : marked 288960 additional internal faces to be converted into baffles.
Analyzed problem cells in = 0.06 s


Introducing baffles to delete problem cells.

Edge intersection testing:
    Number of edges             : 4135124
    Number of edges to retest   : 903976
    Number of intersected edges : 311296
Created baffles in = 0.07000000000000001 s


After introducing baffles : cells:1151232  faces:4135124  points:1382765
Cells per refinement level:
    0	0
    1	0
    2	0
    3	773632
    4	377600
Setting cellZones according to locationsInMesh:
Location : (0.1 0.001 0.001)
    cellZone : none

For cellZone none found point (0.1 0.001 0.001) in global region 3 out of 137730 regions.
Edge intersection testing:
    Number of edges             : 4135124
    Number of edges to retest   : 1145588
    Number of intersected edges : 311296

Remove unreachable sections of mesh
-----------------------------------

Keeping all cells containing points 1((0.1 0.001 0.001))
Selected for keeping : 484352 cells.
Edge intersection testing:
    Number of edges             : 1587648
    Number of edges to retest   : 0
    Number of intersected edges : 155648
Split mesh in = 0.16 s


After subsetting : cells:484352  faces:1587648  points:619425
Cells per refinement level:
    0	0
    1	0
    2	0
    3	269312
    4	215040

Introducing zones for interfaces
--------------------------------

Setting cellZones according to locationsInMesh:
Location : (0.1 0.001 0.001)
    cellZone : none

For cellZone none found point (0.1 0.001 0.001) in global region 0 out of 1 regions.
Setting faceZones according to neighbouring cellZones:

Edge intersection testing:
    Number of edges             : 1587648
    Number of edges to retest   : 0
    Number of intersected edges : 155648

Handling cells with snap problems
---------------------------------

Introducing baffles for 155648 faces that are intersected by the surface.

Setting cellZones according to locationsInMesh:
Location : (0.1 0.001 0.001)
    cellZone : none

For cellZone none found point (0.1 0.001 0.001) in global region 0 out of 1 regions.
Edge intersection testing:
    Number of edges             : 1587648
    Number of edges to retest   : 485592
    Number of intersected edges : 155648
Created baffles in = 0.08 s


After introducing baffles : cells:484352  faces:1587648  points:619425
Cells per refinement level:
    0	0
    1	0
    2	0
    3	269312
    4	215040

Introducing baffles to block off problem cells
----------------------------------------------

markFacesOnProblemCells : marked 0 additional internal faces to be converted into baffles.
Analyzed problem cells in = 0.02 s


Introducing baffles to delete problem cells.

Created baffles in = 0 s


After introducing baffles : cells:484352  faces:1587648  points:619425
Cells per refinement level:
    0	0
    1	0
    2	0
    3	269312
    4	215040
Setting cellZones according to locationsInMesh:
Location : (0.1 0.001 0.001)
    cellZone : none

For cellZone none found point (0.1 0.001 0.001) in global region 0 out of 1 regions.
Edge intersection testing:
    Number of edges             : 1587648
    Number of edges to retest   : 485592
    Number of intersected edges : 155648

Remove unreachable sections of mesh
-----------------------------------

Split mesh in = 0.04 s


After subsetting : cells:484352  faces:1587648  points:619425
Cells per refinement level:
    0	0
    1	0
    2	0
    3	269312
    4	215040

Merge free-standing baffles
---------------------------

freeStandingBaffles : detected 0 free-standing baffles out of 0

Detected free-standing baffles : 0
Merged free-standing baffles in = 0.02 s


dupNonManifoldPoints : Found : 0 non-manifold points (out of 670528)
Detected unsplittable baffles : 0

Merge refined boundary faces
----------------------------

Merging 0 sets of faces.

No faces merged ...

Merging all points on surface that
- are used by only two boundary faces and
- make an angle with a cosine of more than 0.7071067811865476.

No straight edges simplified and no points removed ...

Doing final balancing
---------------------

Found 0 zoned faces to keep together.
Found 0 separated coupled faces to keep together.
Refined mesh : cells:484352  faces:1587648  points:619425
Cells per refinement level:
    0	0
    1	0
    2	0
    3	269312
    4	215040
Writing mesh to time constant
Wrote mesh in = 2.23 s.
Mesh refined in = 3.32 s.

Morphing phase
--------------

Duplicating 0 points on faceZones of type boundary
Constructing mesh displacer ...
Using mesh parameters 
{
    maxNonOrtho     70;
    maxBoundarySkewness 20;
    maxInternalSkewness 4;
    maxConcave      80;
    minVol          1e-13;
    minTetQuality   -1;
    minArea         -1;
    minTwist        0.001;
    minDeterminant  0.0001;
    minFaceWeight   0.01;
    minVolRatio     0.01;
    minTriangleTwist -1;
    nSmoothScale    4;
    errorReduction  0.75;
    relaxed
    {
        maxNonOrtho     75;
    }
}


Checking initial mesh ...
Checking faces in error :
    non-orthogonality > 70  degrees                        : 0
    faces with face pyramid volume < 1e-13                 : 0
    faces with face-decomposition tet quality < -1         : 0
    faces with concavity > 80  degrees                     : 0
    faces with skewness > 4   (internal) or 20  (boundary) : 0
    faces with interpolation weights (0..1)  < 0.01        : 0
    faces with volume ratio of neighbour cells < 0.01      : 0
    faces with face twist < 0.001                          : 0
    faces on cells with determinant < 0.0001                : 0
Detected 0 illegal faces (concave, zero area or negative cell pyramid volume)
Checked initial mesh in = 0.35 s


Smoothing patch points ...
Smoothing iteration 0
Found 0 non-manifold point(s).

Scaling iteration 0
Moving mesh using displacement scaling : min:1  max:1
Checking faces in error :
    non-orthogonality > 70  degrees                        : 0
    faces with face pyramid volume < 1e-13                 : 0
    faces with face-decomposition tet quality < -1         : 0
    faces with concavity > 80  degrees                     : 0
    faces with skewness > 4   (internal) or 20  (boundary) : 0
    faces with interpolation weights (0..1)  < 0.01        : 0
    faces with volume ratio of neighbour cells < 0.01      : 0
    faces with face twist < 0.001                          : 0
    faces on cells with determinant < 0.0001                : 0
Successfully moved mesh

Smoothing iteration 1
Found 0 non-manifold point(s).

Scaling iteration 0
Moving mesh using displacement scaling : min:1  max:1
Checking faces in error :
    non-orthogonality > 70  degrees                        : 0
    faces with face pyramid volume < 1e-13                 : 0
    faces with face-decomposition tet quality < -1         : 0
    faces with concavity > 80  degrees                     : 0
    faces with skewness > 4   (internal) or 20  (boundary) : 0
    faces with interpolation weights (0..1)  < 0.01        : 0
    faces with volume ratio of neighbour cells < 0.01      : 0
    faces with face twist < 0.001                          : 0
    faces on cells with determinant < 0.0001                : 0
Successfully moved mesh

Smoothing iteration 2
Found 0 non-manifold point(s).

Scaling iteration 0
Moving mesh using displacement scaling : min:1  max:1
Checking faces in error :
    non-orthogonality > 70  degrees                        : 0
    faces with face pyramid volume < 1e-13                 : 0
    faces with face-decomposition tet quality < -1         : 0
    faces with concavity > 80  degrees                     : 0
    faces with skewness > 4   (internal) or 20  (boundary) : 0
    faces with interpolation weights (0..1)  < 0.01        : 0
    faces with volume ratio of neighbour cells < 0.01      : 0
    faces with face twist < 0.001                          : 0
    faces on cells with determinant < 0.0001                : 0
Successfully moved mesh

Patch points smoothed in = 0.09 s



Morph iteration 0
-----------------
Calculating patchDisplacement as distance to nearest surface point ...
    non-zone points : attract to nearest of all non-zone surfaces
    zone points     : attract to zone surface only

Wanted displacement : average:0.001253476049277517 min:2.84327097715296e-05 max:0.004130193114759448
Calculated surface displacement in = 0.01 s


Detecting near surfaces ...
Overriding nearest with intersection of close gaps at 0 out of 163529 points.
--> FOAM Warning : Displacement (5.403452673088949e-05 0.0001796031680120769 -3.034239526300553e-13) at mesh point 1476 coord (-0.0908293155271733 -0.2859433720967315 -0.2851562500000001) points through the surrounding patch faces
Smoothing displacement ...
Iteration 0
Iteration 10
Iteration 20
Iteration 30
Iteration 40
Iteration 50
Iteration 60
Iteration 70
Iteration 80
Iteration 90
Iteration 100
Iteration 110
Iteration 120
Iteration 130
Iteration 140
Iteration 150
Iteration 160
Iteration 170
Iteration 180
Iteration 190
Iteration 200
Iteration 210
Iteration 220
Iteration 230
Iteration 240
Iteration 250
Iteration 260
Iteration 270
Iteration 280
Iteration 290
Displacement smoothed in = 0.2 s


Moving mesh ...

Iteration 0
Moving mesh using displacement scaling : min:1  max:1
Checking faces in error :
    non-orthogonality > 70  degrees                        : 0
    faces with face pyramid volume < 1e-13                 : 0
    faces with face-decomposition tet quality < -1         : 0
    faces with concavity > 80  degrees                     : 0
    faces with skewness > 4   (internal) or 20  (boundary) : 0
    faces with interpolation weights (0..1)  < 0.01        : 0
    faces with volume ratio of neighbour cells < 0.01      : 0
    faces with face twist < 0.001                          : 0
    faces on cells with determinant < 0.0001                : 0
Successfully moved mesh
Moved mesh in = 0.02 s


Repatching faces according to nearest surface ...
Repatched 0 faces in = 0.01 s


Edge intersection testing:
    Number of edges             : 1587648
    Number of edges to retest   : 761606
    Number of intersected edges : 155648
Merging 45056 sets of faces.

Edge intersection testing:
    Number of edges             : 1542592
    Number of edges to retest   : 180312
    Number of intersected edges : 110592

Undo iteration 0
----------------
Checking faces in error :
    non-orthogonality > 70  degrees                        : 0
    faces with face pyramid volume < 1e-13                 : 0
    faces with face-decomposition tet quality < -1         : 0
    faces with concavity > 80  degrees                     : 0
    faces with skewness > 4   (internal) or 20  (boundary) : 0
    faces with interpolation weights (0..1)  < 0.01        : 0
    faces with volume ratio of neighbour cells < 0.01      : 0
    faces with face twist < 0.001                          : 0
    faces on cells with determinant < 0.0001                : 0

Merging all points on surface that
- are used by only two boundary faces and
- make an angle with a cosine of more than 0.8660254037844387.

Removing 46505 straight edge points ...

Edge intersection testing:
    Number of edges             : 1542592
    Number of edges to retest   : 180312
    Number of intersected edges : 110592

Undo iteration 0
----------------
Checking faces in error :
    non-orthogonality > 70  degrees                        : 0
    faces with face pyramid volume < 1e-13                 : 0
    faces with face-decomposition tet quality < -1         : 0
    faces with concavity > 80  degrees                     : 0
    faces with skewness > 4   (internal) or 20  (boundary) : 0
    faces with interpolation weights (0..1)  < 0.01        : 0
    faces with volume ratio of neighbour cells < 0.01      : 0
    faces with face twist < 0.001                          : 0
    faces on cells with determinant < 0.0001                : 0
Snapped mesh : cells:484352  faces:1542592  points:574281
Cells per refinement level:
    0	0
    1	0
    2	0
    3	269312
    4	215040
Writing mesh to time constant
Wrote mesh in = 0.36 s.
Mesh snapped in = 1.04 s.
Layer thickness specified as final layer and expansion ratio.

Shrinking and layer addition phase
----------------------------------

Using mesh parameters 
{
    maxNonOrtho     70;
    maxBoundarySkewness 20;
    maxInternalSkewness 4;
    maxConcave      80;
    minVol          1e-13;
    minTetQuality   -1;
    minArea         -1;
    minTwist        0.001;
    minDeterminant  0.0001;
    minFaceWeight   0.01;
    minVolRatio     0.01;
    minTriangleTwist -1;
    nSmoothScale    4;
    errorReduction  0.75;
    relaxed
    {
        maxNonOrtho     75;
    }
}



Merging all faces of a cell
---------------------------
    - which are on the same patch
    - which make an angle < 175 degrees (cos:-0.9961946980917455)
    - as long as the resulting face doesn't become concave by more than 90 degrees
      (0=straight, 180=fully concave)

Merging 0 sets of faces.

No faces merged ...

Merging all points on surface that
- are used by only two boundary faces and
- make an angle with a cosine of more than -0.9961946980917455.

No straight edges simplified and no points removed ...

Checking mesh manifoldness ...
Outside of mesh is multiply connected across edges or points.
This is not a fatal error but might cause some unexpected behaviour.


Checking initial mesh ...
Checking faces in error :
    non-orthogonality > 70  degrees                        : 0
    faces with face pyramid volume < 1e-13                 : 0
    faces with face-decomposition tet quality < -1         : 0
    faces with concavity > 80  degrees                     : 0
    faces with skewness > 4   (internal) or 20  (boundary) : 0
    faces with interpolation weights (0..1)  < 0.01        : 0
    faces with volume ratio of neighbour cells < 0.01      : 0
    faces with face twist < 0.001                          : 0
    faces on cells with determinant < 0.0001                : 0
Detected 0 illegal faces (concave, zero area or negative cell pyramid volume)
Duplicating 0 points on faceZones of type boundary

Handling points with inconsistent layer specification ...
dupNonManifoldPoints : Found : 0 non-manifold points (out of 639076)

Adding in total 0 inter-processor patches to handle extrusion of non-manifold processor boundaries.

Handling points with inconsistent layer specification ...

Handling non-manifold points ...

Checking patch manifoldness ...
Outside of local patch is multiply connected across edges or points at 0 points.
Set displacement to zero for all 0 non-manifold points

Handling feature edges (angle < 175) ...
Set displacement to zero for points on 0 feature edges

Handling cells with warped patch faces ...
Set displacement to zero on 0 warped faces since layer would be > 0.5 of the size of the bounding box.

patch faces    layers avg thickness[m]
                     near-wall overall
----- -----    ------ --------- -------
body 110592   3      0.000814  0.00296 

Selecting externalDisplacementMeshMover displacementMedialAxis
displacementMedialAxis : Calculating distance to Medial Axis ...
fieldSmoother : Smoothing normals ...
    Iteration 0   residual 0.002317739606577791
displacementMedialAxis : Inserting points on patch walls if angle to nearest layer patch > 87.5 degrees.
displacementMedialAxis : Inserting points on patch outlet if angle to nearest layer patch > 87.5 degrees.
displacementMedialAxis : Inserting points on patch inlet if angle to nearest layer patch > 87.5 degrees.
fieldSmoother : Smoothing normals in interior ...
    Iteration 0   residual 0.01259194673643068

Layer addition iteration 0
--------------------------

Determining displacement for added points according to pointNormal ...
Detected 0 points with point normal pointing through faces.
Reset displacement at 0 points to average of surrounding points.

displacementMedialAxis : Smoothing using Medial Axis ...
displacementMedialAxis : Reducing layer thickness at 0 nodes where thickness to medial axis distance is large 
displacementMedialAxis : Removing isolated regions ...
- if partially extruded faces make angle < 87.49999999999999
- if exclusively surrounded by non-extruded faces
displacementMedialAxis : Number of isolated points extrusion stopped : 0
fieldSmoother : Smoothing field ...
    Iteration 0   residual 2.125772172370251e-13
displacementMedialAxis : Moving mesh ...
displacementMedialAxis : Iteration 0
Moving mesh using displacement scaling : min:1  max:1
Checking faces in error :
    non-orthogonality > 70  degrees                        : 0
    faces with face pyramid volume < 1e-13                 : 0
    faces with face-decomposition tet quality < -1         : 0
    faces with concavity > 80  degrees                     : 0
    faces with skewness > 4   (internal) or 20  (boundary) : 0
    faces with interpolation weights (0..1)  < 0.01        : 0
    faces with volume ratio of neighbour cells < 0.01      : 0
    faces with face twist < 0.001                          : 0
    faces on cells with determinant < 0.0001                : 0
displacementMedialAxis : Successfully moved mesh
displacementMedialAxis : Finished moving mesh ...
truncateDisplacement : Unextruded 0 faces due to non-consecutive vertices being extruded.
truncateDisplacement : Unextruded 0 faces due to stringed edges with inconsistent extrusion.

Setting up information for layer truncation ...
Detected 0 baffles across faceZones of type internal


Checking mesh with layer ...
Checking faces in error :
    non-orthogonality > 70  degrees                        : 0
    faces with face pyramid volume < 1e-13                 : 0
    faces with face-decomposition tet quality < -1         : 0
    faces with concavity > 80  degrees                     : 0
    faces with skewness > 4   (internal) or 20  (boundary) : 0
    faces with interpolation weights (0..1)  < 0.01        : 0
    faces with volume ratio of neighbour cells < 0.01      : 0
    faces with face twist < 0.001                          : 0
    faces on cells with determinant < 0.0001                : 0
Detected 0 illegal faces (concave, zero area or negative cell pyramid volume)
Extruding 110592 out of 110592 faces (100%). Removed extrusion at 0 faces.
Added 331776 out of 331776 cells (100%).
Edge intersection testing:
    Number of edges             : 2538568
    Number of edges to retest   : 0
    Number of intersected edges : 442368

patch faces    layers   overall thickness
                       [m]       [%]
----- -----    ------   ---       ---
body 110592   3        0.00296   100     


Doing final balancing
---------------------

Layer mesh : cells:816128  faces:2538568  points:906705
Cells per refinement level:
    0	0
    1	0
    2	0
    3	269312
    4	546816
Writing mesh to time constant
Wrote mesh in = 3.88 s.
Layers added in = 3.88 s.
Checking final mesh ...
Checking faces in error :
    non-orthogonality > 70  degrees                        : 0
    faces with face pyramid volume < 1e-13                 : 0
    faces with face-decomposition tet quality < -1         : 0
    faces with concavity > 80  degrees                     : 0
    faces with skewness > 4   (internal) or 20  (boundary) : 0
    faces with interpolation weights (0..1)  < 0.01        : 0
    faces with volume ratio of neighbour cells < 0.01      : 0
    faces with face twist < 0.001                          : 0
    faces on cells with determinant < 0.0001                : 0
Finished meshing without any errors
Finished meshing in = 9.41 s.
End

Finalising parallel run
