/*---------------------------------------------------------------------------*\
| =========                 |                                                 |
| \\      /  F ield         | OpenFOAM: The Open Source CFD Toolbox           |
|  \\    /   O peration     | Version:  v2006                                 |
|   \\  /    A nd           | Website:  www.openfoam.com                      |
|    \\/     M anipulation  |                                                 |
\*---------------------------------------------------------------------------*/
Build  : _b45f8f6f58-20200629 OPENFOAM=2006
Arch   : "LSB;label=32;scalar=64"
Exec   : /opt/OpenFOAM/OpenFOAM-v2006/platforms/linux64GccDPInt32Opt/bin/snappyHexMesh -parallel -overwrite
Date   : Feb 18 2022
Time   : 00:50:58
Host   : node310.pi.sjtu.edu.cn
PID    : 2861143
I/O    : collated (maxThreadFileBufferSize 0)
         Threading not activated since maxThreadFileBufferSize = 0.
         Writing may run slowly for large file sizes.
Case   : /dssg/home/acct-medgm/medgm/05-NSCBC-Z16/Workspace/run/sineWaveDampingPimpleFoam3Dduct-finer
nProcs : 64
Hosts  :
(
    (node310.pi.sjtu.edu.cn 64)
)
Pstream initialized with:
    floatTransfer      : 0
    nProcsSimpleSum    : 0
    commsType          : nonBlocking
    polling iterations : 0
trapFpe: Floating point exception trapping enabled (FOAM_SIGFPE).
fileModificationChecking : Monitoring run-time modified files using timeStamp (fileModificationSkew 5, maxFileModificationPolls 20)
allowSystemOperations : Allowing user-supplied system call operations

// * * * * * * * * * * * * * * * * * * * * * * * * * * * * * * * * * * * * * //
Create time

Create mesh for time = 0

Read mesh in = 0.55 s

Overall mesh bounding box  : (-0.5 -0.5 -1) (0.5 0.5 1)
Relative tolerance         : 1e-06
Absolute matching distance : 2.449489742783178e-06

Reading refinement surfaces.
Read refinement surfaces in = 0.01 s

Reading refinement shells.
Refinement level 3 for all cells inside box
Read refinement shells in = 0 s

Setting refinement level of surface to be consistent with shells.
For geometry body.stl detected 0 uncached triangles out of 344
Checked shell refinement in = 0.03 s

Reading features.
Read edgeMesh body.eMesh
    points      : 172
    edges       : 172
    boundingBox : (-0.300000011920929 -0.2997998893260956 -2) (0.300000011920929 0.2997998893260956 2)

Refinement level according to distance to "body.eMesh" (172 points, 172 edges).
    level 4 for all cells within 0 metre.
Read features in = 0.05 s


Determining initial surface intersections
-----------------------------------------

Edge intersection testing:
    Number of edges             : 3392
    Number of edges to retest   : 0
    Number of intersected edges : 0
Edge intersection testing:
    Number of edges             : 3392
    Number of edges to retest   : 3392
    Number of intersected edges : 256
Calculated surface intersections in = 0.42 s

Initial mesh : cells:1024  faces:3392  points:1377
Cells per refinement level:
    0	1024

Adding patches for surface regions
----------------------------------

Patch Type                Region                        
----- ----                ------                        
body:

3     wall                body                          

Added patches in = 0 s

Edge intersection testing:
    Number of edges             : 3392
    Number of edges to retest   : 0
    Number of intersected edges : 256
Selecting decompositionMethod scotch [64]

Refinement phase
----------------

Found point (0.1 0.001 0.001) in cell 0 on processor 36

Feature refinement iteration 0
------------------------------

Marked for refinement due to explicit features             : 0 cells.
Determined cells to refine in = 0 s
Selected for feature refinement : 0 cells (out of 1024)
Stopping refining since too few cells selected.


Surface refinement iteration 0
------------------------------

Marked for refinement due to surface intersection          : 448 cells.
Determined cells to refine in = 0 s
Selected for refinement : 448 cells (out of 1024)
Edge intersection testing:
    Number of edges             : 13652
    Number of edges to retest   : 13064
    Number of intersected edges : 1280
Refined mesh in = 0 s
After refinement surface refinement iteration 0 : cells:4160  faces:13652  points:5381
Cells per refinement level:
    0	576
    1	3584
Balanced mesh in = 0.05 s
After balancing surface refinement iteration 0 : cells:4160  faces:13652  points:5381
Cells per refinement level:
    0	576
    1	3584

Surface refinement iteration 1
------------------------------

Marked for refinement due to surface intersection          : 1664 cells.
Determined cells to refine in = 0 s
Selected for refinement : 1792 cells (out of 4160)
Edge intersection testing:
    Number of edges             : 55496
    Number of edges to retest   : 52636
    Number of intersected edges : 5120
Refined mesh in = 0 s
After refinement surface refinement iteration 1 : cells:16704  faces:55496  points:22181
Cells per refinement level:
    0	448
    1	2944
    2	13312
Skipping balancing since max unbalance 0.08045977011494254 is less than allowable 0.1

Surface refinement iteration 2
------------------------------

Marked for refinement due to surface intersection          : 6912 cells.
Determined cells to refine in = 0 s
Selected for refinement : 7744 cells (out of 16704)
Edge intersection testing:
    Number of edges             : 233504
    Number of edges to retest   : 224268
    Number of intersected edges : 19456
Refined mesh in = 0.01 s
After refinement surface refinement iteration 2 : cells:70912  faces:233504  points:91849
Cells per refinement level:
    0	384
    1	2688
    2	12544
    3	55296
Balanced mesh in = 0.42 s
After balancing surface refinement iteration 2 : cells:70912  faces:233504  points:91849
Cells per refinement level:
    0	384
    1	2688
    2	12544
    3	55296

Surface refinement iteration 3
------------------------------

Marked for refinement due to surface intersection          : 28160 cells.
Determined cells to refine in = 0 s
Selected for refinement : 32000 cells (out of 70912)
Edge intersection testing:
    Number of edges             : 963980
    Number of edges to retest   : 937516
    Number of intersected edges : 77824
Refined mesh in = 0.03 s
After refinement surface refinement iteration 3 : cells:294912  faces:963980  points:374473
Cells per refinement level:
    0	256
    1	3328
    2	12288
    3	53760
    4	225280
Skipping balancing since max unbalance 0.05555555555555558 is less than allowable 0.1

Surface refinement iteration 4
------------------------------

Marked for refinement due to surface intersection          : 0 cells.
Determined cells to refine in = 0.01 s
Selected for refinement : 0 cells (out of 294912)
Stopping refining since too few cells selected.


Removing mesh beyond surface intersections
------------------------------------------

Setting cellZones according to locationsInMesh:
Location : (0.1 0.001 0.001)
    cellZone : none

For cellZone none found point (0.1 0.001 0.001) in global region 0 out of 2 regions.
Keeping all cells containing inside points
Selected for keeping : 294912 cells.
Edge intersection testing:
    Number of edges             : 963980
    Number of edges to retest   : 0
    Number of intersected edges : 77824
Setting cellZones according to locationsInMesh:
Location : (0.1 0.001 0.001)
    cellZone : none

For cellZone none found point (0.1 0.001 0.001) in global region 0 out of 2 regions.
Keeping all cells containing inside points
Selected for keeping : 236131 cells.
Edge intersection testing:
    Number of edges             : 810672
    Number of edges to retest   : 93986
    Number of intersected edges : 77824

Shell refinement iteration 0
----------------------------

Marked for refinement due to distance to explicit features : 0 cells.
Marked for refinement due to refinement shells             : 12338 cells.
Determined cells to refine in = 0.06 s
Selected for internal refinement : 12338 cells (out of 236131)
Edge intersection testing:
    Number of edges             : 1074852
    Number of edges to retest   : 415551
    Number of intersected edges : 77824
Refined mesh in = 0.04 s
After refinement shell refinement iteration 0 : cells:322497  faces:1074852  points:426831
Cells per refinement level:
    0	0
    1	2048
    2	23832
    3	106197
    4	190420
Skipping balancing since max unbalance 0.0771978567176026 is less than allowable 0.1

Shell refinement iteration 1
----------------------------

Marked for refinement due to distance to explicit features : 0 cells.
Marked for refinement due to refinement shells             : 25880 cells.
Determined cells to refine in = 0.01 s
Selected for internal refinement : 25880 cells (out of 322497)
Edge intersection testing:
    Number of edges             : 1632111
    Number of edges to retest   : 737979
    Number of intersected edges : 77824
Refined mesh in = 0.05 s
After refinement shell refinement iteration 1 : cells:503657  faces:1632111  points:620691
Cells per refinement level:
    0	0
    1	0
    2	16384
    3	296853
    4	190420
Balanced mesh in = 3.2 s
After balancing shell refinement iteration 1 : cells:503657  faces:1632111  points:620906
Cells per refinement level:
    0	0
    1	0
    2	16384
    3	296853
    4	190420

Shell refinement iteration 2
----------------------------

Marked for refinement due to distance to explicit features : 0 cells.
Marked for refinement due to refinement shells             : 16384 cells.
Determined cells to refine in = 0.37 s
Selected for internal refinement : 16384 cells (out of 503657)
Edge intersection testing:
    Number of edges             : 1976175
    Number of edges to retest   : 480561
    Number of intersected edges : 77824
Refined mesh in = 0.27 s
After refinement shell refinement iteration 2 : cells:618345  faces:1976175  points:735324
Cells per refinement level:
    0	0
    1	0
    2	0
    3	427925
    4	190420
Balanced mesh in = 2.62 s
After balancing shell refinement iteration 2 : cells:618345  faces:1976175  points:735443
Cells per refinement level:
    0	0
    1	0
    2	0
    3	427925
    4	190420

Shell refinement iteration 3
----------------------------

Marked for refinement due to distance to explicit features : 0 cells.
Marked for refinement due to refinement shells             : 0 cells.
Determined cells to refine in = 0.01 s
Selected for internal refinement : 0 cells (out of 618345)
Stopping refining since too few cells selected.


Dangling coarse cells refinement iteration 0
--------------------------------------------

Determined cells to refine in = 0 s
Selected for refinement : 0 cells (out of 618345)
Stopping refining since too few cells selected.


Dangling coarse cells refinement iteration 0
--------------------------------------------

Determined cells to refine in = 0.01 s
Selected for refinement : 0 cells (out of 618345)
Stopping refining since too few cells selected.


Refinement transition refinement iteration 0
--------------------------------------------

Determined cells to refine in = 0 s
Selected for refinement : 0 cells (out of 618345)
Stopping refining since too few cells selected.


Splitting mesh at surface intersections
---------------------------------------

Introducing baffles for 77824 faces that are intersected by the surface.

Setting cellZones according to locationsInMesh:
Location : (0.1 0.001 0.001)
    cellZone : none

For cellZone none found point (0.1 0.001 0.001) in global region 0 out of 2 regions.
Edge intersection testing:
    Number of edges             : 2053999
    Number of edges to retest   : 490932
    Number of intersected edges : 155648
Created baffles in = 0.05 s


After introducing baffles : cells:618345  faces:2053999  points:735450
Cells per refinement level:
    0	0
    1	0
    2	0
    3	427925
    4	190420

Introducing baffles to block off problem cells
----------------------------------------------

markFacesOnProblemCells : marked 132847 additional internal faces to be converted into baffles.
Analyzed problem cells in = 0.05 s


Introducing baffles to delete problem cells.

Edge intersection testing:
    Number of edges             : 2186846
    Number of edges to retest   : 427058
    Number of intersected edges : 155648
Created baffles in = 0.05 s


After introducing baffles : cells:618345  faces:2186846  points:739067
Cells per refinement level:
    0	0
    1	0
    2	0
    3	427925
    4	190420
Setting cellZones according to locationsInMesh:
Location : (0.1 0.001 0.001)
    cellZone : none

For cellZone none found point (0.1 0.001 0.001) in global region 0 out of 62506 regions.
Edge intersection testing:
    Number of edges             : 2186846
    Number of edges to retest   : 569503
    Number of intersected edges : 155648

Remove unreachable sections of mesh
-----------------------------------

Keeping all cells containing points 1((0.1 0.001 0.001))
Selected for keeping : 242176 cells.
Edge intersection testing:
    Number of edges             : 794560
    Number of edges to retest   : 0
    Number of intersected edges : 77824
Split mesh in = 0.11 s


After subsetting : cells:242176  faces:794560  points:310561
Cells per refinement level:
    0	0
    1	0
    2	0
    3	134656
    4	107520

Introducing zones for interfaces
--------------------------------

Setting cellZones according to locationsInMesh:
Location : (0.1 0.001 0.001)
    cellZone : none

For cellZone none found point (0.1 0.001 0.001) in global region 0 out of 1 regions.
Setting faceZones according to neighbouring cellZones:

Edge intersection testing:
    Number of edges             : 794560
    Number of edges to retest   : 0
    Number of intersected edges : 77824

Handling cells with snap problems
---------------------------------

Introducing baffles for 77824 faces that are intersected by the surface.

Setting cellZones according to locationsInMesh:
Location : (0.1 0.001 0.001)
    cellZone : none

For cellZone none found point (0.1 0.001 0.001) in global region 0 out of 1 regions.
Edge intersection testing:
    Number of edges             : 794560
    Number of edges to retest   : 242904
    Number of intersected edges : 77824
Created baffles in = 0.09 s


After introducing baffles : cells:242176  faces:794560  points:310561
Cells per refinement level:
    0	0
    1	0
    2	0
    3	134656
    4	107520

Introducing baffles to block off problem cells
----------------------------------------------

markFacesOnProblemCells : marked 0 additional internal faces to be converted into baffles.
Analyzed problem cells in = 0.03 s


Introducing baffles to delete problem cells.

Created baffles in = 0.01 s


After introducing baffles : cells:242176  faces:794560  points:310561
Cells per refinement level:
    0	0
    1	0
    2	0
    3	134656
    4	107520
Setting cellZones according to locationsInMesh:
Location : (0.1 0.001 0.001)
    cellZone : none

For cellZone none found point (0.1 0.001 0.001) in global region 0 out of 1 regions.
Edge intersection testing:
    Number of edges             : 794560
    Number of edges to retest   : 242904
    Number of intersected edges : 77824

Remove unreachable sections of mesh
-----------------------------------

Split mesh in = 0.05 s


After subsetting : cells:242176  faces:794560  points:310561
Cells per refinement level:
    0	0
    1	0
    2	0
    3	134656
    4	107520

Merge free-standing baffles
---------------------------

freeStandingBaffles : detected 0 free-standing baffles out of 0

Detected free-standing baffles : 0
Merged free-standing baffles in = 0.02 s


dupNonManifoldPoints : Found : 0 non-manifold points (out of 345037)
Detected unsplittable baffles : 0

Merge refined boundary faces
----------------------------

Merging 0 sets of faces.

No faces merged ...

Merging all points on surface that
- are used by only two boundary faces and
- make an angle with a cosine of more than 0.7071067811865476.

No straight edges simplified and no points removed ...

Doing final balancing
---------------------

Found 0 zoned faces to keep together.
Found 0 separated coupled faces to keep together.
Refined mesh : cells:242176  faces:794560  points:310561
Cells per refinement level:
    0	0
    1	0
    2	0
    3	134656
    4	107520
Writing mesh to time constant
Wrote mesh in = 1.38 s.
Mesh refined in = 9 s.

Morphing phase
--------------

Duplicating 0 points on faceZones of type boundary
Constructing mesh displacer ...
Using mesh parameters 
{
    maxNonOrtho     70;
    maxBoundarySkewness 20;
    maxInternalSkewness 4;
    maxConcave      80;
    minVol          1e-13;
    minTetQuality   -1;
    minArea         -1;
    minTwist        0.001;
    minDeterminant  0.0001;
    minFaceWeight   0.01;
    minVolRatio     0.01;
    minTriangleTwist -1;
    nSmoothScale    4;
    errorReduction  0.75;
    relaxed
    {
        maxNonOrtho     75;
    }
}


Checking initial mesh ...
Checking faces in error :
    non-orthogonality > 70  degrees                        : 0
    faces with face pyramid volume < 1e-13                 : 0
    faces with face-decomposition tet quality < -1         : 0
    faces with concavity > 80  degrees                     : 0
    faces with skewness > 4   (internal) or 20  (boundary) : 0
    faces with interpolation weights (0..1)  < 0.01        : 0
    faces with volume ratio of neighbour cells < 0.01      : 0
    faces with face twist < 0.001                          : 0
    faces on cells with determinant < 0.0001                : 0
Detected 0 illegal faces (concave, zero area or negative cell pyramid volume)
Checked initial mesh in = 0.66 s


Smoothing patch points ...
Smoothing iteration 0
Found 0 non-manifold point(s).

Scaling iteration 0
Moving mesh using displacement scaling : min:1  max:1
Checking faces in error :
    non-orthogonality > 70  degrees                        : 0
    faces with face pyramid volume < 1e-13                 : 0
    faces with face-decomposition tet quality < -1         : 0
    faces with concavity > 80  degrees                     : 0
    faces with skewness > 4   (internal) or 20  (boundary) : 0
    faces with interpolation weights (0..1)  < 0.01        : 0
    faces with volume ratio of neighbour cells < 0.01      : 0
    faces with face twist < 0.001                          : 0
    faces on cells with determinant < 0.0001                : 0
Successfully moved mesh

Smoothing iteration 1
Found 0 non-manifold point(s).

Scaling iteration 0
Moving mesh using displacement scaling : min:1  max:1
Checking faces in error :
    non-orthogonality > 70  degrees                        : 0
    faces with face pyramid volume < 1e-13                 : 0
    faces with face-decomposition tet quality < -1         : 0
    faces with concavity > 80  degrees                     : 0
    faces with skewness > 4   (internal) or 20  (boundary) : 0
    faces with interpolation weights (0..1)  < 0.01        : 0
    faces with volume ratio of neighbour cells < 0.01      : 0
    faces with face twist < 0.001                          : 0
    faces on cells with determinant < 0.0001                : 0
Successfully moved mesh

Smoothing iteration 2
Found 0 non-manifold point(s).

Scaling iteration 0
Moving mesh using displacement scaling : min:1  max:1
Checking faces in error :
    non-orthogonality > 70  degrees                        : 0
    faces with face pyramid volume < 1e-13                 : 0
    faces with face-decomposition tet quality < -1         : 0
    faces with concavity > 80  degrees                     : 0
    faces with skewness > 4   (internal) or 20  (boundary) : 0
    faces with interpolation weights (0..1)  < 0.01        : 0
    faces with volume ratio of neighbour cells < 0.01      : 0
    faces with face twist < 0.001                          : 0
    faces on cells with determinant < 0.0001                : 0
Successfully moved mesh

Patch points smoothed in = 1.04 s



Morph iteration 0
-----------------
Calculating patchDisplacement as distance to nearest surface point ...
    non-zone points : attract to nearest of all non-zone surfaces
    zone points     : attract to zone surface only

Wanted displacement : average:0.001252836185960443 min:2.828461653623646e-05 max:0.004130193114759393
Calculated surface displacement in = 0 s


Detecting near surfaces ...
Overriding nearest with intersection of close gaps at 0 out of 82962 points.
Smoothing displacement ...
Iteration 0
Iteration 10
Iteration 20
Iteration 30
Iteration 40
Iteration 50
Iteration 60
Iteration 70
Iteration 80
Iteration 90
Iteration 100
Iteration 110
Iteration 120
Iteration 130
Iteration 140
Iteration 150
Iteration 160
Iteration 170
Iteration 180
Iteration 190
Iteration 200
Iteration 210
Iteration 220
Iteration 230
Iteration 240
Iteration 250
Iteration 260
Iteration 270
Iteration 280
Iteration 290
Displacement smoothed in = 0.12 s


Moving mesh ...

Iteration 0
Moving mesh using displacement scaling : min:1  max:1
Checking faces in error :
    non-orthogonality > 70  degrees                        : 0
    faces with face pyramid volume < 1e-13                 : 0
    faces with face-decomposition tet quality < -1         : 0
    faces with concavity > 80  degrees                     : 0
    faces with skewness > 4   (internal) or 20  (boundary) : 0
    faces with interpolation weights (0..1)  < 0.01        : 0
    faces with volume ratio of neighbour cells < 0.01      : 0
    faces with face twist < 0.001                          : 0
    faces on cells with determinant < 0.0001                : 0
Successfully moved mesh
Moved mesh in = 0.01 s


Repatching faces according to nearest surface ...
Repatched 0 faces in = 0.01 s


Edge intersection testing:
    Number of edges             : 794560
    Number of edges to retest   : 429872
    Number of intersected edges : 77824
Merging 22528 sets of faces.

Edge intersection testing:
    Number of edges             : 772032
    Number of edges to retest   : 90200
    Number of intersected edges : 55296

Undo iteration 0
----------------
Checking faces in error :
    non-orthogonality > 70  degrees                        : 0
    faces with face pyramid volume < 1e-13                 : 0
    faces with face-decomposition tet quality < -1         : 0
    faces with concavity > 80  degrees                     : 0
    faces with skewness > 4   (internal) or 20  (boundary) : 0
    faces with interpolation weights (0..1)  < 0.01        : 0
    faces with volume ratio of neighbour cells < 0.01      : 0
    faces with face twist < 0.001                          : 0
    faces on cells with determinant < 0.0001                : 0

Merging all points on surface that
- are used by only two boundary faces and
- make an angle with a cosine of more than 0.8660254037844387.

Removing 23356 straight edge points ...

Edge intersection testing:
    Number of edges             : 772032
    Number of edges to retest   : 90200
    Number of intersected edges : 55296

Undo iteration 0
----------------
Checking faces in error :
    non-orthogonality > 70  degrees                        : 0
    faces with face pyramid volume < 1e-13                 : 0
    faces with face-decomposition tet quality < -1         : 0
    faces with concavity > 80  degrees                     : 0
    faces with skewness > 4   (internal) or 20  (boundary) : 0
    faces with interpolation weights (0..1)  < 0.01        : 0
    faces with volume ratio of neighbour cells < 0.01      : 0
    faces with face twist < 0.001                          : 0
    faces on cells with determinant < 0.0001                : 0
Snapped mesh : cells:242176  faces:772032  points:287945
Cells per refinement level:
    0	0
    1	0
    2	0
    3	134656
    4	107520
Writing mesh to time constant
Wrote mesh in = 0.32 s.
Mesh snapped in = 2.16 s.
Layer thickness specified as final layer and expansion ratio.

Shrinking and layer addition phase
----------------------------------

Using mesh parameters 
{
    maxNonOrtho     70;
    maxBoundarySkewness 20;
    maxInternalSkewness 4;
    maxConcave      80;
    minVol          1e-13;
    minTetQuality   -1;
    minArea         -1;
    minTwist        0.001;
    minDeterminant  0.0001;
    minFaceWeight   0.01;
    minVolRatio     0.01;
    minTriangleTwist -1;
    nSmoothScale    4;
    errorReduction  0.75;
    relaxed
    {
        maxNonOrtho     75;
    }
}



Merging all faces of a cell
---------------------------
    - which are on the same patch
    - which make an angle < 175 degrees (cos:-0.9961946980917455)
    - as long as the resulting face doesn't become concave by more than 90 degrees
      (0=straight, 180=fully concave)

Merging 0 sets of faces.

No faces merged ...

Merging all points on surface that
- are used by only two boundary faces and
- make an angle with a cosine of more than -0.9961946980917455.

No straight edges simplified and no points removed ...

Checking mesh manifoldness ...

Checking initial mesh ...
Checking faces in error :
    non-orthogonality > 70  degrees                        : 0
    faces with face pyramid volume < 1e-13                 : 0
    faces with face-decomposition tet quality < -1         : 0
    faces with concavity > 80  degrees                     : 0
    faces with skewness > 4   (internal) or 20  (boundary) : 0
    faces with interpolation weights (0..1)  < 0.01        : 0
    faces with volume ratio of neighbour cells < 0.01      : 0
    faces with face twist < 0.001                          : 0
    faces on cells with determinant < 0.0001                : 0
Detected 0 illegal faces (concave, zero area or negative cell pyramid volume)
Duplicating 0 points on faceZones of type boundary

Handling points with inconsistent layer specification ...
dupNonManifoldPoints : Found : 0 non-manifold points (out of 330872)

Adding in total 0 inter-processor patches to handle extrusion of non-manifold processor boundaries.

Handling points with inconsistent layer specification ...

Handling non-manifold points ...

Checking patch manifoldness ...
Outside of local patch is multiply connected across edges or points at 0 points.
Set displacement to zero for all 0 non-manifold points

Handling feature edges (angle < 175) ...
Set displacement to zero for points on 0 feature edges

Handling cells with warped patch faces ...
Set displacement to zero on 0 warped faces since layer would be > 0.5 of the size of the bounding box.

patch faces    layers avg thickness[m]
                     near-wall overall
----- -----    ------ --------- -------
body 55296    3      0.00163   0.00592 

Selecting externalDisplacementMeshMover displacementMedialAxis
displacementMedialAxis : Calculating distance to Medial Axis ...
fieldSmoother : Smoothing normals ...
    Iteration 0   residual 0.003488055235195442
displacementMedialAxis : Inserting points on patch walls if angle to nearest layer patch > 87.5 degrees.
displacementMedialAxis : Inserting points on patch outlet if angle to nearest layer patch > 87.5 degrees.
displacementMedialAxis : Inserting points on patch inlet if angle to nearest layer patch > 87.5 degrees.
fieldSmoother : Smoothing normals in interior ...
    Iteration 0   residual 0.01668684722862904

Layer addition iteration 0
--------------------------

Determining displacement for added points according to pointNormal ...
Detected 0 points with point normal pointing through faces.
Reset displacement at 0 points to average of surrounding points.

displacementMedialAxis : Smoothing using Medial Axis ...
displacementMedialAxis : Reducing layer thickness at 0 nodes where thickness to medial axis distance is large 
displacementMedialAxis : Removing isolated regions ...
- if partially extruded faces make angle < 87.49999999999999
- if exclusively surrounded by non-extruded faces
displacementMedialAxis : Number of isolated points extrusion stopped : 0
fieldSmoother : Smoothing field ...
    Iteration 0   residual 1.728261194316721e-13
displacementMedialAxis : Moving mesh ...
displacementMedialAxis : Iteration 0
Moving mesh using displacement scaling : min:1  max:1
Checking faces in error :
    non-orthogonality > 70  degrees                        : 0
    faces with face pyramid volume < 1e-13                 : 0
    faces with face-decomposition tet quality < -1         : 0
    faces with concavity > 80  degrees                     : 0
    faces with skewness > 4   (internal) or 20  (boundary) : 0
    faces with interpolation weights (0..1)  < 0.01        : 0
    faces with volume ratio of neighbour cells < 0.01      : 0
    faces with face twist < 0.001                          : 0
    faces on cells with determinant < 0.0001                : 0
displacementMedialAxis : Successfully moved mesh
displacementMedialAxis : Finished moving mesh ...
truncateDisplacement : Unextruded 0 faces due to non-consecutive vertices being extruded.
truncateDisplacement : Unextruded 0 faces due to stringed edges with inconsistent extrusion.

Setting up information for layer truncation ...
Detected 0 baffles across faceZones of type internal


Checking mesh with layer ...
Checking faces in error :
    non-orthogonality > 70  degrees                        : 0
    faces with face pyramid volume < 1e-13                 : 0
    faces with face-decomposition tet quality < -1         : 0
    faces with concavity > 80  degrees                     : 0
    faces with skewness > 4   (internal) or 20  (boundary) : 0
    faces with interpolation weights (0..1)  < 0.01        : 0
    faces with volume ratio of neighbour cells < 0.01      : 0
    faces with face twist < 0.001                          : 0
    faces on cells with determinant < 0.0001                : 0
Detected 0 illegal faces (concave, zero area or negative cell pyramid volume)
Extruding 55296 out of 55296 faces (100%). Removed extrusion at 0 faces.
Added 165888 out of 165888 cells (100%).
Edge intersection testing:
    Number of edges             : 1270344
    Number of edges to retest   : 0
    Number of intersected edges : 221184

patch faces    layers   overall thickness
                       [m]       [%]
----- -----    ------   ---       ---
body 55296    3        0.00592   100     


Doing final balancing
---------------------

Layer mesh : cells:408064  faces:1270344  points:454481
Cells per refinement level:
    0	0
    1	0
    2	0
    3	134656
    4	273408
Writing mesh to time constant
Wrote mesh in = 2.41 s.
Layers added in = 2.41 s.
Checking final mesh ...
Checking faces in error :
    non-orthogonality > 70  degrees                        : 0
    faces with face pyramid volume < 1e-13                 : 0
    faces with face-decomposition tet quality < -1         : 0
    faces with concavity > 80  degrees                     : 0
    faces with skewness > 4   (internal) or 20  (boundary) : 0
    faces with interpolation weights (0..1)  < 0.01        : 0
    faces with volume ratio of neighbour cells < 0.01      : 0
    faces with face twist < 0.001                          : 0
    faces on cells with determinant < 0.0001                : 0
Finished meshing without any errors
Finished meshing in = 15.12 s.
End

Finalising parallel run
