/*---------------------------------------------------------------------------*\
| =========                 |                                                 |
| \\      /  F ield         | OpenFOAM: The Open Source CFD Toolbox           |
|  \\    /   O peration     | Version:  4.x                                   |
|   \\  /    A nd           | Web:      www.OpenFOAM.org                      |
|    \\/     M anipulation  |                                                 |
\*---------------------------------------------------------------------------*/
Build  : 4.x-d214c8dfd5ba
Exec   : rhoPimpleFoam
Date   : Jan 21 2022
Time   : 10:37:25
Host   : "wjq"
PID    : 2367
Case   : /home/wjq/Desktop/NSCBC-openfoam/01-A1/mycases/prism-NSCBC-2
nProcs : 1
sigFpe : Enabling floating point exception trapping (FOAM_SIGFPE).
fileModificationChecking : Monitoring run-time modified files using timeStampMaster
allowSystemOperations : Allowing user-supplied system call operations

// * * * * * * * * * * * * * * * * * * * * * * * * * * * * * * * * * * * * * //
Create time

Create mesh for time = 0


PIMPLE: no residual control data found. Calculations will employ 2 corrector loops

Reading thermophysical properties

Selecting thermodynamics package 
{
    type            hePsiThermo;
    mixture         pureMixture;
    transport       const;
    thermo          hConst;
    equationOfState perfectGas;
    specie          specie;
    energy          sensibleInternalEnergy;
}

Reading field U

Reading/calculating face flux field phi

Creating turbulence model

Selecting turbulence model type RAS
Selecting RAS turbulence model RNGkEpsilon
RNGkEpsilonCoeffs
{
    Cmu             0.0845;
    C1              1.42;
    C2              1.68;
    C3              0;
    sigmak          0.71942;
    sigmaEps        0.71942;
    eta0            4.38;
    beta            0.012;
}

Creating field dpdt

Creating field kinetic energy K

No MRF models present

No finite volume options present

Courant Number mean: 0.101591 max: 0.432452

Starting time loop

Courant Number mean: 0.101591 max: 0.432452
Time = 5e-06

PIMPLE: iteration 1
smoothSolver:  Solving for Ux, Initial residual = 1, Final residual = 8.72509e-06, No Iterations 12
smoothSolver:  Solving for Uy, Initial residual = 1, Final residual = 7.89495e-06, No Iterations 10
Inside evaluate before updateCoeffs
smoothSolver:  Solving for e, Initial residual = 1, Final residual = 9.25807e-06, No Iterations 16
smoothSolver:  Solving for p, Initial residual = 1, Final residual = 6.29476e-09, No Iterations 8
Inside evaluate before updateCoeffs
diagonal:  Solving for rho, Initial residual = 0, Final residual = 0, No Iterations 0
time step continuity errors : sum local = 4.54478e-12, global = -1.80001e-12, cumulative = -1.80001e-12
rho max/min : 1.22296 0.791719
Inside evaluate before updateCoeffs
PIMPLE: iteration 2
smoothSolver:  Solving for Ux, Initial residual = 0.25755, Final residual = 6.19569e-06, No Iterations 12
smoothSolver:  Solving for Uy, Initial residual = 0.437283, Final residual = 6.20903e-06, No Iterations 12
Inside evaluate before updateCoeffs
smoothSolver:  Solving for e, Initial residual = 0.593687, Final residual = 6.54137e-06, No Iterations 16
smoothSolver:  Solving for p, Initial residual = 0.338781, Final residual = 7.52004e-09, No Iterations 7
Inside evaluate before updateCoeffs
diagonal:  Solving for rho, Initial residual = 0, Final residual = 0, No Iterations 0
time step continuity errors : sum local = 1.50289e-11, global = -1.30123e-11, cumulative = -1.48123e-11
rho max/min : 1.2095 0.957922
Inside evaluate before updateCoeffs
smoothSolver:  Solving for epsilon, Initial residual = 0.0202885, Final residual = 9.58924e-09, No Iterations 24
smoothSolver:  Solving for k, Initial residual = 1, Final residual = 9.38247e-09, No Iterations 25
ExecutionTime = 0.32 s  ClockTime = 0 s

Courant Number mean: 0.101803 max: 0.446762
Time = 1e-05

PIMPLE: iteration 1
smoothSolver:  Solving for Ux, Initial residual = 0.0194223, Final residual = 8.91704e-06, No Iterations 6
smoothSolver:  Solving for Uy, Initial residual = 0.256039, Final residual = 6.0288e-06, No Iterations 7
Inside evaluate before updateCoeffs
smoothSolver:  Solving for e, Initial residual = 0.254789, Final residual = 7.35877e-06, No Iterations 11
smoothSolver:  Solving for p, Initial residual = 0.115498, Final residual = 4.76203e-09, No Iterations 20
Inside evaluate before updateCoeffs
diagonal:  Solving for rho, Initial residual = 0, Final residual = 0, No Iterations 0
time step continuity errors : sum local = 6.77979e-12, global = -6.77947e-12, cumulative = -2.15918e-11
rho max/min : 1.2445 0.930135
Inside evaluate before updateCoeffs
PIMPLE: iteration 2
smoothSolver:  Solving for Ux, Initial residual = 0.00772784, Final residual = 4.92455e-06, No Iterations 6
smoothSolver:  Solving for Uy, Initial residual = 0.0677355, Final residual = 6.84604e-06, No Iterations 7
Inside evaluate before updateCoeffs
smoothSolver:  Solving for e, Initial residual = 0.0461164, Final residual = 5.73154e-06, No Iterations 8
smoothSolver:  Solving for p, Initial residual = 0.0221294, Final residual = 9.31354e-09, No Iterations 16
Inside evaluate before updateCoeffs
diagonal:  Solving for rho, Initial residual = 0, Final residual = 0, No Iterations 0
time step continuity errors : sum local = 3.11189e-11, global = 3.10723e-11, cumulative = 9.4805e-12
rho max/min : 1.25042 0.890271
Inside evaluate before updateCoeffs
smoothSolver:  Solving for epsilon, Initial residual = 0.00473218, Final residual = 6.49012e-09, No Iterations 17
smoothSolver:  Solving for k, Initial residual = 0.776109, Final residual = 5.41357e-09, No Iterations 23
ExecutionTime = 0.45 s  ClockTime = 0 s

Courant Number mean: 0.101763 max: 0.480828
Time = 1.5e-05

PIMPLE: iteration 1
smoothSolver:  Solving for Ux, Initial residual = 0.0119536, Final residual = 9.62725e-06, No Iterations 6
smoothSolver:  Solving for Uy, Initial residual = 0.201795, Final residual = 8.04927e-06, No Iterations 7
Inside evaluate before updateCoeffs
smoothSolver:  Solving for e, Initial residual = 0.134657, Final residual = 7.24456e-06, No Iterations 11
smoothSolver:  Solving for p, Initial residual = 0.0571858, Final residual = 6.69467e-09, No Iterations 19
Inside evaluate before updateCoeffs
diagonal:  Solving for rho, Initial residual = 0, Final residual = 0, No Iterations 0
time step continuity errors : sum local = 1.73353e-11, global = -1.73347e-11, cumulative = -7.85417e-12
rho max/min : 1.27728 0.86193
Inside evaluate before updateCoeffs
PIMPLE: iteration 2
smoothSolver:  Solving for Ux, Initial residual = 0.00427209, Final residual = 7.12834e-06, No Iterations 5
smoothSolver:  Solving for Uy, Initial residual = 0.038059, Final residual = 7.13426e-06, No Iterations 7
Inside evaluate before updateCoeffs
smoothSolver:  Solving for e, Initial residual = 0.0375703, Final residual = 5.42626e-06, No Iterations 9
smoothSolver:  Solving for p, Initial residual = 0.0154823, Final residual = 4.51149e-09, No Iterations 17
Inside evaluate before updateCoeffs
diagonal:  Solving for rho, Initial residual = 0, Final residual = 0, No Iterations 0
time step continuity errors : sum local = 1.97065e-11, global = 1.96965e-11, cumulative = 1.18423e-11
rho max/min : 1.28197 0.855506
Inside evaluate before updateCoeffs
smoothSolver:  Solving for epsilon, Initial residual = 0.00473007, Final residual = 8.16958e-09, No Iterations 16
smoothSolver:  Solving for k, Initial residual = 0.930457, Final residual = 5.91961e-09, No Iterations 23
ExecutionTime = 0.58 s  ClockTime = 0 s

Courant Number mean: 0.101725 max: 0.518084
Time = 2e-05

PIMPLE: iteration 1
smoothSolver:  Solving for Ux, Initial residual = 0.00953374, Final residual = 9.53908e-06, No Iterations 6
smoothSolver:  Solving for Uy, Initial residual = 0.159482, Final residual = 9.43592e-06, No Iterations 7
Inside evaluate before updateCoeffs
smoothSolver:  Solving for e, Initial residual = 0.0826706, Final residual = 7.37712e-06, No Iterations 11
smoothSolver:  Solving for p, Initial residual = 0.0358465, Final residual = 8.57006e-09, No Iterations 18
Inside evaluate before updateCoeffs
diagonal:  Solving for rho, Initial residual = 0, Final residual = 0, No Iterations 0
time step continuity errors : sum local = 3.14186e-11, global = -3.14158e-11, cumulative = -1.95735e-11
rho max/min : 1.29853 0.852502
Inside evaluate before updateCoeffs
PIMPLE: iteration 2
smoothSolver:  Solving for Ux, Initial residual = 0.00279203, Final residual = 4.6641e-06, No Iterations 5
smoothSolver:  Solving for Uy, Initial residual = 0.0258928, Final residual = 6.86696e-06, No Iterations 7
Inside evaluate before updateCoeffs
smoothSolver:  Solving for e, Initial residual = 0.0295008, Final residual = 7.52943e-06, No Iterations 9
smoothSolver:  Solving for p, Initial residual = 0.0112164, Final residual = 9.96344e-09, No Iterations 16
Inside evaluate before updateCoeffs
diagonal:  Solving for rho, Initial residual = 0, Final residual = 0, No Iterations 0
time step continuity errors : sum local = 5.30485e-11, global = 5.30151e-11, cumulative = 3.34417e-11
rho max/min : 1.30203 0.836227
Inside evaluate before updateCoeffs
smoothSolver:  Solving for epsilon, Initial residual = 0.00483727, Final residual = 6.77097e-09, No Iterations 16
smoothSolver:  Solving for k, Initial residual = 0.894272, Final residual = 9.64171e-09, No Iterations 22
ExecutionTime = 0.72 s  ClockTime = 0 s

Courant Number mean: 0.101688 max: 0.552453
Time = 2.5e-05

PIMPLE: iteration 1
smoothSolver:  Solving for Ux, Initial residual = 0.00781398, Final residual = 9.26005e-06, No Iterations 6
smoothSolver:  Solving for Uy, Initial residual = 0.129639, Final residual = 4.4647e-06, No Iterations 8
Inside evaluate before updateCoeffs
smoothSolver:  Solving for e, Initial residual = 0.0567111, Final residual = 7.19148e-06, No Iterations 11
smoothSolver:  Solving for p, Initial residual = 0.0255191, Final residual = 5.13703e-09, No Iterations 18
Inside evaluate before updateCoeffs
diagonal:  Solving for rho, Initial residual = 0, Final residual = 0, No Iterations 0
time step continuity errors : sum local = 2.39619e-11, global = -2.39595e-11, cumulative = 9.48217e-12
rho max/min : 1.31246 0.829126
Inside evaluate before updateCoeffs
PIMPLE: iteration 2
smoothSolver:  Solving for Ux, Initial residual = 0.00196821, Final residual = 7.31139e-06, No Iterations 4
smoothSolver:  Solving for Uy, Initial residual = 0.0218508, Final residual = 6.37389e-06, No Iterations 7
Inside evaluate before updateCoeffs
smoothSolver:  Solving for e, Initial residual = 0.023583, Final residual = 9.01006e-06, No Iterations 9
smoothSolver:  Solving for p, Initial residual = 0.0086122, Final residual = 7.479e-09, No Iterations 16
Inside evaluate before updateCoeffs
diagonal:  Solving for rho, Initial residual = 0, Final residual = 0, No Iterations 0
time step continuity errors : sum local = 4.64574e-11, global = 4.64296e-11, cumulative = 5.59117e-11
rho max/min : 1.31196 0.819777
Inside evaluate before updateCoeffs
smoothSolver:  Solving for epsilon, Initial residual = 0.00491192, Final residual = 6.09442e-09, No Iterations 16
smoothSolver:  Solving for k, Initial residual = 0.847688, Final residual = 8.88822e-09, No Iterations 22
ExecutionTime = 0.85 s  ClockTime = 1 s

Courant Number mean: 0.101657 max: 0.579825
Time = 3e-05

PIMPLE: iteration 1
smoothSolver:  Solving for Ux, Initial residual = 0.00656069, Final residual = 8.93152e-06, No Iterations 6
smoothSolver:  Solving for Uy, Initial residual = 0.108548, Final residual = 4.76171e-06, No Iterations 8
Inside evaluate before updateCoeffs
smoothSolver:  Solving for e, Initial residual = 0.0422148, Final residual = 6.89582e-06, No Iterations 11
smoothSolver:  Solving for p, Initial residual = 0.0199889, Final residual = 5.51319e-09, No Iterations 17
Inside evaluate before updateCoeffs
diagonal:  Solving for rho, Initial residual = 0, Final residual = 0, No Iterations 0
time step continuity errors : sum local = 3.08378e-11, global = -3.08316e-11, cumulative = 2.50801e-11
rho max/min : 1.31752 0.808541
Inside evaluate before updateCoeffs
PIMPLE: iteration 2
smoothSolver:  Solving for Ux, Initial residual = 0.00147452, Final residual = 5.43875e-06, No Iterations 4
smoothSolver:  Solving for Uy, Initial residual = 0.0179211, Final residual = 5.78053e-06, No Iterations 7
Inside evaluate before updateCoeffs
smoothSolver:  Solving for e, Initial residual = 0.0194016, Final residual = 9.94096e-06, No Iterations 9
smoothSolver:  Solving for p, Initial residual = 0.00686013, Final residual = 4.88311e-09, No Iterations 16
Inside evaluate before updateCoeffs
diagonal:  Solving for rho, Initial residual = 0, Final residual = 0, No Iterations 0
time step continuity errors : sum local = 3.43696e-11, global = 3.43477e-11, cumulative = 5.94278e-11
rho max/min : 1.31674 0.803475
Inside evaluate before updateCoeffs
smoothSolver:  Solving for epsilon, Initial residual = 0.00497634, Final residual = 5.73032e-09, No Iterations 16
smoothSolver:  Solving for k, Initial residual = 0.797199, Final residual = 8.5891e-09, No Iterations 22
ExecutionTime = 0.99 s  ClockTime = 1 s

Courant Number mean: 0.101629 max: 0.621738
Time = 3.5e-05

PIMPLE: iteration 1
smoothSolver:  Solving for Ux, Initial residual = 0.00560537, Final residual = 8.58632e-06, No Iterations 6
smoothSolver:  Solving for Uy, Initial residual = 0.0928229, Final residual = 4.93024e-06, No Iterations 8
Inside evaluate before updateCoeffs
smoothSolver:  Solving for e, Initial residual = 0.0362711, Final residual = 6.56133e-06, No Iterations 11
smoothSolver:  Solving for p, Initial residual = 0.0178135, Final residual = 9.20016e-09, No Iterations 15
Inside evaluate before updateCoeffs
diagonal:  Solving for rho, Initial residual = 0, Final residual = 0, No Iterations 0
time step continuity errors : sum local = 5.94374e-11, global = -5.93796e-11, cumulative = 4.82576e-14
rho max/min : 1.31727 0.789167
Inside evaluate before updateCoeffs
PIMPLE: iteration 2
smoothSolver:  Solving for Ux, Initial residual = 0.00127106, Final residual = 4.55404e-06, No Iterations 4
smoothSolver:  Solving for Uy, Initial residual = 0.0149041, Final residual = 5.18485e-06, No Iterations 7
Inside evaluate before updateCoeffs
smoothSolver:  Solving for e, Initial residual = 0.017144, Final residual = 5.66076e-06, No Iterations 10
smoothSolver:  Solving for p, Initial residual = 0.00588675, Final residual = 5.56946e-09, No Iterations 15
Inside evaluate before updateCoeffs
diagonal:  Solving for rho, Initial residual = 0, Final residual = 0, No Iterations 0
time step continuity errors : sum local = 4.35827e-11, global = 4.35258e-11, cumulative = 4.35741e-11
rho max/min : 1.31725 0.787372
Inside evaluate before updateCoeffs
smoothSolver:  Solving for epsilon, Initial residual = 0.00500422, Final residual = 5.50566e-09, No Iterations 16
smoothSolver:  Solving for k, Initial residual = 0.745042, Final residual = 8.40065e-09, No Iterations 22
ExecutionTime = 1.13 s  ClockTime = 1 s

Courant Number mean: 0.101606 max: 0.67223
Time = 4e-05

PIMPLE: iteration 1
smoothSolver:  Solving for Ux, Initial residual = 0.00487115, Final residual = 8.23451e-06, No Iterations 6
smoothSolver:  Solving for Uy, Initial residual = 0.0804296, Final residual = 4.99227e-06, No Iterations 8
Inside evaluate before updateCoeffs
smoothSolver:  Solving for e, Initial residual = 0.0334729, Final residual = 6.21637e-06, No Iterations 11
smoothSolver:  Solving for p, Initial residual = 0.0165554, Final residual = 5.28568e-09, No Iterations 14
Inside evaluate before updateCoeffs
diagonal:  Solving for rho, Initial residual = 0, Final residual = 0, No Iterations 0
time step continuity errors : sum local = 3.85366e-11, global = -1.80528e-11, cumulative = 2.55213e-11
rho max/min : 1.31299 0.773352
Inside evaluate before updateCoeffs
PIMPLE: iteration 2
smoothSolver:  Solving for Ux, Initial residual = 0.00122047, Final residual = 4.21187e-06, No Iterations 4
smoothSolver:  Solving for Uy, Initial residual = 0.0131171, Final residual = 4.60045e-06, No Iterations 7
Inside evaluate before updateCoeffs
smoothSolver:  Solving for e, Initial residual = 0.0169252, Final residual = 5.78993e-06, No Iterations 10
smoothSolver:  Solving for p, Initial residual = 0.00560614, Final residual = 9.20262e-09, No Iterations 13
Inside evaluate before updateCoeffs
diagonal:  Solving for rho, Initial residual = 0, Final residual = 0, No Iterations 0
time step continuity errors : sum local = 7.8942e-11, global = 7.85264e-11, cumulative = 1.04048e-10
rho max/min : 1.31188 0.772063
Inside evaluate before updateCoeffs
smoothSolver:  Solving for epsilon, Initial residual = 0.00501506, Final residual = 5.34086e-09, No Iterations 16
smoothSolver:  Solving for k, Initial residual = 0.530991, Final residual = 6.27088e-09, No Iterations 22
ExecutionTime = 1.26 s  ClockTime = 1 s

Courant Number mean: 0.101589 max: 0.717546
Time = 4.5e-05

PIMPLE: iteration 1
smoothSolver:  Solving for Ux, Initial residual = 0.00438448, Final residual = 7.87757e-06, No Iterations 6
smoothSolver:  Solving for Uy, Initial residual = 0.0704493, Final residual = 4.97023e-06, No Iterations 8
Inside evaluate before updateCoeffs
smoothSolver:  Solving for e, Initial residual = 0.0316734, Final residual = 5.87005e-06, No Iterations 11
smoothSolver:  Solving for p, Initial residual = 0.0155319, Final residual = 9.88017e-09, No Iterations 14
Inside evaluate before updateCoeffs
diagonal:  Solving for rho, Initial residual = 0, Final residual = 0, No Iterations 0
time step continuity errors : sum local = 7.9846e-11, global = 4.81409e-11, cumulative = 1.52189e-10
rho max/min : 1.30343 0.758895
Inside evaluate before updateCoeffs
PIMPLE: iteration 2
smoothSolver:  Solving for Ux, Initial residual = 0.00117754, Final residual = 4.14984e-06, No Iterations 4
smoothSolver:  Solving for Uy, Initial residual = 0.0113046, Final residual = 9.57438e-06, No Iterations 6
Inside evaluate before updateCoeffs
smoothSolver:  Solving for e, Initial residual = 0.0170453, Final residual = 5.81181e-06, No Iterations 10
smoothSolver:  Solving for p, Initial residual = 0.00545145, Final residual = 4.64973e-09, No Iterations 13
Inside evaluate before updateCoeffs
diagonal:  Solving for rho, Initial residual = 0, Final residual = 0, No Iterations 0
time step continuity errors : sum local = 4.31443e-11, global = -1.24956e-12, cumulative = 1.50939e-10
rho max/min : 1.30241 0.75815
Inside evaluate before updateCoeffs
smoothSolver:  Solving for epsilon, Initial residual = 0.0049885, Final residual = 9.77735e-09, No Iterations 15
smoothSolver:  Solving for k, Initial residual = 0.379942, Final residual = 8.85443e-09, No Iterations 21
ExecutionTime = 1.39 s  ClockTime = 1 s

Courant Number mean: 0.101576 max: 0.757521
Time = 5e-05

PIMPLE: iteration 1
smoothSolver:  Solving for Ux, Initial residual = 0.00405512, Final residual = 7.51574e-06, No Iterations 6
smoothSolver:  Solving for Uy, Initial residual = 0.0624597, Final residual = 4.88031e-06, No Iterations 8
Inside evaluate before updateCoeffs
smoothSolver:  Solving for e, Initial residual = 0.0301331, Final residual = 5.52871e-06, No Iterations 11
smoothSolver:  Solving for p, Initial residual = 0.014555, Final residual = 6.95454e-09, No Iterations 15
Inside evaluate before updateCoeffs
diagonal:  Solving for rho, Initial residual = 0, Final residual = 0, No Iterations 0
time step continuity errors : sum local = 6.13258e-11, global = 4.29974e-11, cumulative = 1.93936e-10
rho max/min : 1.29335 0.746444
Inside evaluate before updateCoeffs
PIMPLE: iteration 2
smoothSolver:  Solving for Ux, Initial residual = 0.00113056, Final residual = 4.21314e-06, No Iterations 4
smoothSolver:  Solving for Uy, Initial residual = 0.0101393, Final residual = 8.34881e-06, No Iterations 6
Inside evaluate before updateCoeffs
smoothSolver:  Solving for e, Initial residual = 0.0173791, Final residual = 5.75639e-06, No Iterations 10
smoothSolver:  Solving for p, Initial residual = 0.00537497, Final residual = 9.28216e-09, No Iterations 13
Inside evaluate before updateCoeffs
diagonal:  Solving for rho, Initial residual = 0, Final residual = 0, No Iterations 0
time step continuity errors : sum local = 9.21295e-11, global = -5.27588e-11, cumulative = 1.41178e-10
rho max/min : 1.29158 0.74525
Inside evaluate before updateCoeffs
smoothSolver:  Solving for epsilon, Initial residual = 0.00492723, Final residual = 9.54012e-09, No Iterations 15
smoothSolver:  Solving for k, Initial residual = 0.284097, Final residual = 6.80533e-09, No Iterations 21
ExecutionTime = 1.52 s  ClockTime = 1 s

Courant Number mean: 0.101567 max: 0.791791
Time = 5.5e-05

PIMPLE: iteration 1
smoothSolver:  Solving for Ux, Initial residual = 0.00379006, Final residual = 7.15377e-06, No Iterations 6
smoothSolver:  Solving for Uy, Initial residual = 0.0560073, Final residual = 4.73391e-06, No Iterations 8
Inside evaluate before updateCoeffs
smoothSolver:  Solving for e, Initial residual = 0.0281652, Final residual = 9.70316e-06, No Iterations 10
smoothSolver:  Solving for p, Initial residual = 0.0134337, Final residual = 8.2456e-09, No Iterations 15
Inside evaluate before updateCoeffs
diagonal:  Solving for rho, Initial residual = 0, Final residual = 0, No Iterations 0
time step continuity errors : sum local = 7.83344e-11, global = 5.35945e-11, cumulative = 1.94772e-10
rho max/min : 1.28282 0.742729
Inside evaluate before updateCoeffs
PIMPLE: iteration 2
smoothSolver:  Solving for Ux, Initial residual = 0.00108257, Final residual = 4.31089e-06, No Iterations 4
smoothSolver:  Solving for Uy, Initial residual = 0.00894539, Final residual = 7.20268e-06, No Iterations 6
Inside evaluate before updateCoeffs
smoothSolver:  Solving for e, Initial residual = 0.0170162, Final residual = 5.64194e-06, No Iterations 10
smoothSolver:  Solving for p, Initial residual = 0.00513058, Final residual = 6.20609e-09, No Iterations 14
Inside evaluate before updateCoeffs
diagonal:  Solving for rho, Initial residual = 0, Final residual = 0, No Iterations 0
time step continuity errors : sum local = 6.526e-11, global = -4.3674e-11, cumulative = 1.51098e-10
rho max/min : 1.28128 0.742573
Inside evaluate before updateCoeffs
smoothSolver:  Solving for epsilon, Initial residual = 0.00484649, Final residual = 9.27639e-09, No Iterations 15
smoothSolver:  Solving for k, Initial residual = 0.220579, Final residual = 5.38575e-09, No Iterations 21
ExecutionTime = 1.64 s  ClockTime = 1 s

Courant Number mean: 0.101561 max: 0.82184
Time = 6e-05

PIMPLE: iteration 1
smoothSolver:  Solving for Ux, Initial residual = 0.00357693, Final residual = 6.79312e-06, No Iterations 6
smoothSolver:  Solving for Uy, Initial residual = 0.0520015, Final residual = 4.54626e-06, No Iterations 8
Inside evaluate before updateCoeffs
smoothSolver:  Solving for e, Initial residual = 0.0263223, Final residual = 9.12998e-06, No Iterations 10
smoothSolver:  Solving for p, Initial residual = 0.0125849, Final residual = 9.00374e-09, No Iterations 15
Inside evaluate before updateCoeffs
diagonal:  Solving for rho, Initial residual = 0, Final residual = 0, No Iterations 0
time step continuity errors : sum local = 9.11753e-11, global = 6.16169e-11, cumulative = 2.12715e-10
rho max/min : 1.2787 0.735812
Inside evaluate before updateCoeffs
PIMPLE: iteration 2
smoothSolver:  Solving for Ux, Initial residual = 0.00104389, Final residual = 4.40897e-06, No Iterations 4
smoothSolver:  Solving for Uy, Initial residual = 0.00788502, Final residual = 6.15985e-06, No Iterations 6
Inside evaluate before updateCoeffs
smoothSolver:  Solving for e, Initial residual = 0.0163726, Final residual = 5.49803e-06, No Iterations 10
smoothSolver:  Solving for p, Initial residual = 0.00484247, Final residual = 7.43656e-09, No Iterations 14
Inside evaluate before updateCoeffs
diagonal:  Solving for rho, Initial residual = 0, Final residual = 0, No Iterations 0
time step continuity errors : sum local = 8.218e-11, global = -5.68221e-11, cumulative = 1.55893e-10
rho max/min : 1.27924 0.740102
Inside evaluate before updateCoeffs
smoothSolver:  Solving for epsilon, Initial residual = 0.0047434, Final residual = 8.97525e-09, No Iterations 15
smoothSolver:  Solving for k, Initial residual = 0.176511, Final residual = 8.28834e-09, No Iterations 20
ExecutionTime = 1.76 s  ClockTime = 1 s

Courant Number mean: 0.101559 max: 0.847641
Time = 6.5e-05

PIMPLE: iteration 1
smoothSolver:  Solving for Ux, Initial residual = 0.00338686, Final residual = 6.43541e-06, No Iterations 6
smoothSolver:  Solving for Uy, Initial residual = 0.0488283, Final residual = 4.32915e-06, No Iterations 8
Inside evaluate before updateCoeffs
smoothSolver:  Solving for e, Initial residual = 0.0254842, Final residual = 8.58086e-06, No Iterations 10
smoothSolver:  Solving for p, Initial residual = 0.0120805, Final residual = 9.4462e-09, No Iterations 15
Inside evaluate before updateCoeffs
diagonal:  Solving for rho, Initial residual = 0, Final residual = 0, No Iterations 0
time step continuity errors : sum local = 1.0106e-10, global = 6.86022e-11, cumulative = 2.24495e-10
rho max/min : 1.27802 0.734544
Inside evaluate before updateCoeffs
PIMPLE: iteration 2
smoothSolver:  Solving for Ux, Initial residual = 0.000995752, Final residual = 4.48193e-06, No Iterations 4
smoothSolver:  Solving for Uy, Initial residual = 0.00707046, Final residual = 5.21162e-06, No Iterations 6
Inside evaluate before updateCoeffs
smoothSolver:  Solving for e, Initial residual = 0.0158617, Final residual = 9.99721e-06, No Iterations 9
smoothSolver:  Solving for p, Initial residual = 0.00461104, Final residual = 8.36136e-09, No Iterations 14
Inside evaluate before updateCoeffs
diagonal:  Solving for rho, Initial residual = 0, Final residual = 0, No Iterations 0
time step continuity errors : sum local = 9.64303e-11, global = -6.56942e-11, cumulative = 1.58801e-10
rho max/min : 1.27859 0.738802
Inside evaluate before updateCoeffs
smoothSolver:  Solving for epsilon, Initial residual = 0.00464655, Final residual = 8.63385e-09, No Iterations 15
smoothSolver:  Solving for k, Initial residual = 0.144769, Final residual = 6.81032e-09, No Iterations 20
ExecutionTime = 1.89 s  ClockTime = 2 s

Courant Number mean: 0.101558 max: 0.869856
Time = 7e-05

PIMPLE: iteration 1
smoothSolver:  Solving for Ux, Initial residual = 0.00322687, Final residual = 6.08409e-06, No Iterations 6
smoothSolver:  Solving for Uy, Initial residual = 0.0455268, Final residual = 9.90165e-06, No Iterations 7
Inside evaluate before updateCoeffs
smoothSolver:  Solving for e, Initial residual = 0.0249271, Final residual = 8.0537e-06, No Iterations 10
smoothSolver:  Solving for p, Initial residual = 0.0117134, Final residual = 9.61682e-09, No Iterations 15
Inside evaluate before updateCoeffs
diagonal:  Solving for rho, Initial residual = 0, Final residual = 0, No Iterations 0
time step continuity errors : sum local = 1.07872e-10, global = 7.42977e-11, cumulative = 2.33099e-10
rho max/min : 1.27516 0.731365
Inside evaluate before updateCoeffs
PIMPLE: iteration 2
smoothSolver:  Solving for Ux, Initial residual = 0.000950769, Final residual = 4.52131e-06, No Iterations 4
smoothSolver:  Solving for Uy, Initial residual = 0.00651322, Final residual = 4.39316e-06, No Iterations 6
Inside evaluate before updateCoeffs
smoothSolver:  Solving for e, Initial residual = 0.0155377, Final residual = 9.65152e-06, No Iterations 9
smoothSolver:  Solving for p, Initial residual = 0.00450413, Final residual = 8.93483e-09, No Iterations 14
Inside evaluate before updateCoeffs
diagonal:  Solving for rho, Initial residual = 0, Final residual = 0, No Iterations 0
time step continuity errors : sum local = 1.06883e-10, global = -7.29636e-11, cumulative = 1.60135e-10
rho max/min : 1.2757 0.73643
Inside evaluate before updateCoeffs
smoothSolver:  Solving for epsilon, Initial residual = 0.00454853, Final residual = 8.25575e-09, No Iterations 15
smoothSolver:  Solving for k, Initial residual = 0.121226, Final residual = 5.67055e-09, No Iterations 20
ExecutionTime = 2.02 s  ClockTime = 2 s

Courant Number mean: 0.101559 max: 0.891531
Time = 7.5e-05

PIMPLE: iteration 1
smoothSolver:  Solving for Ux, Initial residual = 0.00310695, Final residual = 5.74182e-06, No Iterations 6
smoothSolver:  Solving for Uy, Initial residual = 0.0422243, Final residual = 9.33932e-06, No Iterations 7
Inside evaluate before updateCoeffs
smoothSolver:  Solving for e, Initial residual = 0.02451, Final residual = 7.55307e-06, No Iterations 10
smoothSolver:  Solving for p, Initial residual = 0.0114267, Final residual = 9.62184e-09, No Iterations 15
Inside evaluate before updateCoeffs
diagonal:  Solving for rho, Initial residual = 0, Final residual = 0, No Iterations 0
time step continuity errors : sum local = 1.12403e-10, global = 7.91461e-11, cumulative = 2.39281e-10
rho max/min : 1.27091 0.732314
Inside evaluate before updateCoeffs
PIMPLE: iteration 2
smoothSolver:  Solving for Ux, Initial residual = 0.000929568, Final residual = 4.52428e-06, No Iterations 4
smoothSolver:  Solving for Uy, Initial residual = 0.00618632, Final residual = 9.07128e-06, No Iterations 5
Inside evaluate before updateCoeffs
smoothSolver:  Solving for e, Initial residual = 0.0156482, Final residual = 9.28411e-06, No Iterations 9
smoothSolver:  Solving for p, Initial residual = 0.00444262, Final residual = 9.21207e-09, No Iterations 14
Inside evaluate before updateCoeffs
diagonal:  Solving for rho, Initial residual = 0, Final residual = 0, No Iterations 0
time step continuity errors : sum local = 1.13679e-10, global = -7.86127e-11, cumulative = 1.60668e-10
rho max/min : 1.27145 0.735719
Inside evaluate before updateCoeffs
smoothSolver:  Solving for epsilon, Initial residual = 0.0044342, Final residual = 7.84886e-09, No Iterations 15
smoothSolver:  Solving for k, Initial residual = 0.103264, Final residual = 9.17564e-09, No Iterations 19
ExecutionTime = 2.15 s  ClockTime = 2 s

Courant Number mean: 0.101562 max: 0.916502
Time = 8e-05

PIMPLE: iteration 1
smoothSolver:  Solving for Ux, Initial residual = 0.00300791, Final residual = 5.41109e-06, No Iterations 6
smoothSolver:  Solving for Uy, Initial residual = 0.039406, Final residual = 8.76429e-06, No Iterations 7
Inside evaluate before updateCoeffs
smoothSolver:  Solving for e, Initial residual = 0.0243011, Final residual = 7.08282e-06, No Iterations 10
smoothSolver:  Solving for p, Initial residual = 0.0112235, Final residual = 9.40835e-09, No Iterations 15
Inside evaluate before updateCoeffs
diagonal:  Solving for rho, Initial residual = 0, Final residual = 0, No Iterations 0
time step continuity errors : sum local = 1.13794e-10, global = 8.28943e-11, cumulative = 2.43563e-10
rho max/min : 1.26591 0.733902
Inside evaluate before updateCoeffs
PIMPLE: iteration 2
smoothSolver:  Solving for Ux, Initial residual = 0.00091533, Final residual = 4.49395e-06, No Iterations 4
smoothSolver:  Solving for Uy, Initial residual = 0.00581993, Final residual = 7.67641e-06, No Iterations 5
Inside evaluate before updateCoeffs
smoothSolver:  Solving for e, Initial residual = 0.0158014, Final residual = 8.90307e-06, No Iterations 9
smoothSolver:  Solving for p, Initial residual = 0.00439852, Final residual = 9.17132e-09, No Iterations 14
Inside evaluate before updateCoeffs
diagonal:  Solving for rho, Initial residual = 0, Final residual = 0, No Iterations 0
time step continuity errors : sum local = 1.16183e-10, global = -8.07179e-11, cumulative = 1.62845e-10
rho max/min : 1.26641 0.738115
Inside evaluate before updateCoeffs
smoothSolver:  Solving for epsilon, Initial residual = 0.00431078, Final residual = 7.42135e-09, No Iterations 15
smoothSolver:  Solving for k, Initial residual = 0.0892445, Final residual = 7.8158e-09, No Iterations 19
ExecutionTime = 2.27 s  ClockTime = 2 s

Courant Number mean: 0.101566 max: 0.938923
Time = 8.5e-05

PIMPLE: iteration 1
smoothSolver:  Solving for Ux, Initial residual = 0.00292456, Final residual = 5.09423e-06, No Iterations 6
smoothSolver:  Solving for Uy, Initial residual = 0.0372619, Final residual = 8.18537e-06, No Iterations 7
Inside evaluate before updateCoeffs
smoothSolver:  Solving for e, Initial residual = 0.0242015, Final residual = 6.64316e-06, No Iterations 10
smoothSolver:  Solving for p, Initial residual = 0.0110507, Final residual = 8.9818e-09, No Iterations 15
Inside evaluate before updateCoeffs
diagonal:  Solving for rho, Initial residual = 0, Final residual = 0, No Iterations 0
time step continuity errors : sum local = 1.11882e-10, global = 8.4617e-11, cumulative = 2.47462e-10
rho max/min : 1.26501 0.737104
Inside evaluate before updateCoeffs
PIMPLE: iteration 2
smoothSolver:  Solving for Ux, Initial residual = 0.00090886, Final residual = 4.43485e-06, No Iterations 4
smoothSolver:  Solving for Uy, Initial residual = 0.00555711, Final residual = 6.58039e-06, No Iterations 5
Inside evaluate before updateCoeffs
smoothSolver:  Solving for e, Initial residual = 0.0160046, Final residual = 8.52329e-06, No Iterations 9
smoothSolver:  Solving for p, Initial residual = 0.00436746, Final residual = 8.85741e-09, No Iterations 14
Inside evaluate before updateCoeffs
diagonal:  Solving for rho, Initial residual = 0, Final residual = 0, No Iterations 0
time step continuity errors : sum local = 1.14679e-10, global = -8.14293e-11, cumulative = 1.66033e-10
rho max/min : 1.26493 0.743381
Inside evaluate before updateCoeffs
smoothSolver:  Solving for epsilon, Initial residual = 0.00417754, Final residual = 6.98106e-09, No Iterations 15
smoothSolver:  Solving for k, Initial residual = 0.0781226, Final residual = 6.7153e-09, No Iterations 19
ExecutionTime = 2.4 s  ClockTime = 2 s

Courant Number mean: 0.101571 max: 0.958364
Time = 9e-05

PIMPLE: iteration 1
smoothSolver:  Solving for Ux, Initial residual = 0.00285727, Final residual = 4.79186e-06, No Iterations 6
smoothSolver:  Solving for Uy, Initial residual = 0.0353491, Final residual = 7.61211e-06, No Iterations 7
Inside evaluate before updateCoeffs
smoothSolver:  Solving for e, Initial residual = 0.0241678, Final residual = 6.2391e-06, No Iterations 10
smoothSolver:  Solving for p, Initial residual = 0.0109409, Final residual = 8.37997e-09, No Iterations 15
Inside evaluate before updateCoeffs
diagonal:  Solving for rho, Initial residual = 0, Final residual = 0, No Iterations 0
time step continuity errors : sum local = 1.07003e-10, global = 8.67032e-11, cumulative = 2.52736e-10
rho max/min : 1.26423 0.743769
Inside evaluate before updateCoeffs
PIMPLE: iteration 2
smoothSolver:  Solving for Ux, Initial residual = 0.000903345, Final residual = 4.35357e-06, No Iterations 4
smoothSolver:  Solving for Uy, Initial residual = 0.00534172, Final residual = 5.71261e-06, No Iterations 5
Inside evaluate before updateCoeffs
smoothSolver:  Solving for e, Initial residual = 0.0162031, Final residual = 8.15736e-06, No Iterations 9
smoothSolver:  Solving for p, Initial residual = 0.00434314, Final residual = 8.2951e-09, No Iterations 14
Inside evaluate before updateCoeffs
diagonal:  Solving for rho, Initial residual = 0, Final residual = 0, No Iterations 0
time step continuity errors : sum local = 1.09335e-10, global = -8.05968e-11, cumulative = 1.72139e-10
rho max/min : 1.26409 0.7516
Inside evaluate before updateCoeffs
smoothSolver:  Solving for epsilon, Initial residual = 0.00404148, Final residual = 6.53661e-09, No Iterations 15
smoothSolver:  Solving for k, Initial residual = 0.0691622, Final residual = 5.81548e-09, No Iterations 19
ExecutionTime = 2.52 s  ClockTime = 2 s

Courant Number mean: 0.101577 max: 0.974568
Time = 9.5e-05

PIMPLE: iteration 1
smoothSolver:  Solving for Ux, Initial residual = 0.00280634, Final residual = 4.50483e-06, No Iterations 6
smoothSolver:  Solving for Uy, Initial residual = 0.0338571, Final residual = 7.05265e-06, No Iterations 7
Inside evaluate before updateCoeffs
smoothSolver:  Solving for e, Initial residual = 0.0242911, Final residual = 5.87184e-06, No Iterations 10
smoothSolver:  Solving for p, Initial residual = 0.0108779, Final residual = 7.63192e-09, No Iterations 15
Inside evaluate before updateCoeffs
diagonal:  Solving for rho, Initial residual = 0, Final residual = 0, No Iterations 0
time step continuity errors : sum local = 9.94773e-11, global = 8.63697e-11, cumulative = 2.58509e-10
rho max/min : 1.26349 0.753303
Inside evaluate before updateCoeffs
PIMPLE: iteration 2
smoothSolver:  Solving for Ux, Initial residual = 0.000900893, Final residual = 4.25056e-06, No Iterations 4
smoothSolver:  Solving for Uy, Initial residual = 0.00511552, Final residual = 5.04681e-06, No Iterations 5
Inside evaluate before updateCoeffs
smoothSolver:  Solving for e, Initial residual = 0.0164599, Final residual = 7.80682e-06, No Iterations 9
smoothSolver:  Solving for p, Initial residual = 0.00434084, Final residual = 7.61365e-09, No Iterations 14
Inside evaluate before updateCoeffs
diagonal:  Solving for rho, Initial residual = 0, Final residual = 0, No Iterations 0
time step continuity errors : sum local = 1.01812e-10, global = -7.9693e-11, cumulative = 1.78816e-10
rho max/min : 1.26345 0.761185
Inside evaluate before updateCoeffs
smoothSolver:  Solving for epsilon, Initial residual = 0.00390378, Final residual = 6.09701e-09, No Iterations 15
smoothSolver:  Solving for k, Initial residual = 0.0618272, Final residual = 9.85433e-09, No Iterations 18
ExecutionTime = 2.65 s  ClockTime = 2 s

Courant Number mean: 0.101584 max: 0.987374
Time = 0.0001

PIMPLE: iteration 1
smoothSolver:  Solving for Ux, Initial residual = 0.00276832, Final residual = 4.23308e-06, No Iterations 6
smoothSolver:  Solving for Uy, Initial residual = 0.0323874, Final residual = 6.5128e-06, No Iterations 7
Inside evaluate before updateCoeffs
smoothSolver:  Solving for e, Initial residual = 0.0244273, Final residual = 5.53977e-06, No Iterations 10
smoothSolver:  Solving for p, Initial residual = 0.0108093, Final residual = 6.8975e-09, No Iterations 15
Inside evaluate before updateCoeffs
diagonal:  Solving for rho, Initial residual = 0, Final residual = 0, No Iterations 0
time step continuity errors : sum local = 9.14377e-11, global = 8.44401e-11, cumulative = 2.63256e-10
rho max/min : 1.26283 0.76071
Inside evaluate before updateCoeffs
PIMPLE: iteration 2
smoothSolver:  Solving for Ux, Initial residual = 0.000903532, Final residual = 4.13827e-06, No Iterations 4
smoothSolver:  Solving for Uy, Initial residual = 0.00483032, Final residual = 4.55196e-06, No Iterations 5
Inside evaluate before updateCoeffs
smoothSolver:  Solving for e, Initial residual = 0.0168136, Final residual = 7.47958e-06, No Iterations 9
smoothSolver:  Solving for p, Initial residual = 0.0043565, Final residual = 6.82238e-09, No Iterations 14
Inside evaluate before updateCoeffs
diagonal:  Solving for rho, Initial residual = 0, Final residual = 0, No Iterations 0
time step continuity errors : sum local = 9.22846e-11, global = -7.66808e-11, cumulative = 1.86575e-10
rho max/min : 1.26281 0.764843
Inside evaluate before updateCoeffs
smoothSolver:  Solving for epsilon, Initial residual = 0.00376384, Final residual = 5.672e-09, No Iterations 15
smoothSolver:  Solving for k, Initial residual = 0.0557478, Final residual = 8.68109e-09, No Iterations 18
ExecutionTime = 2.91 s  ClockTime = 3 s

Courant Number mean: 0.101591 max: 0.998144
Time = 0.000105

PIMPLE: iteration 1
smoothSolver:  Solving for Ux, Initial residual = 0.00274412, Final residual = 9.43262e-06, No Iterations 5
smoothSolver:  Solving for Uy, Initial residual = 0.0310308, Final residual = 5.99816e-06, No Iterations 7
Inside evaluate before updateCoeffs
smoothSolver:  Solving for e, Initial residual = 0.0246066, Final residual = 5.24658e-06, No Iterations 10
smoothSolver:  Solving for p, Initial residual = 0.010798, Final residual = 6.20991e-09, No Iterations 15
Inside evaluate before updateCoeffs
diagonal:  Solving for rho, Initial residual = 0, Final residual = 0, No Iterations 0
time step continuity errors : sum local = 8.34593e-11, global = 8.12491e-11, cumulative = 2.67824e-10
rho max/min : 1.2621 0.766583
Inside evaluate before updateCoeffs
PIMPLE: iteration 2
smoothSolver:  Solving for Ux, Initial residual = 0.000900588, Final residual = 3.90165e-06, No Iterations 4
smoothSolver:  Solving for Uy, Initial residual = 0.00452379, Final residual = 4.17293e-06, No Iterations 5
Inside evaluate before updateCoeffs
smoothSolver:  Solving for e, Initial residual = 0.0171279, Final residual = 7.18303e-06, No Iterations 9
smoothSolver:  Solving for p, Initial residual = 0.00436614, Final residual = 6.04451e-09, No Iterations 14
Inside evaluate before updateCoeffs
diagonal:  Solving for rho, Initial residual = 0, Final residual = 0, No Iterations 0
time step continuity errors : sum local = 8.25036e-11, global = -7.33265e-11, cumulative = 1.94498e-10
rho max/min : 1.26216 0.771598
Inside evaluate before updateCoeffs
smoothSolver:  Solving for epsilon, Initial residual = 0.00362225, Final residual = 5.26815e-09, No Iterations 15
smoothSolver:  Solving for k, Initial residual = 0.0506577, Final residual = 7.70313e-09, No Iterations 18
ExecutionTime = 3.04 s  ClockTime = 3 s

Courant Number mean: 0.1016 max: 1.0131
Time = 0.00011

PIMPLE: iteration 1
smoothSolver:  Solving for Ux, Initial residual = 0.00272849, Final residual = 8.88087e-06, No Iterations 5
smoothSolver:  Solving for Uy, Initial residual = 0.0298277, Final residual = 5.51168e-06, No Iterations 7
Inside evaluate before updateCoeffs
smoothSolver:  Solving for e, Initial residual = 0.0249143, Final residual = 9.57996e-06, No Iterations 9
smoothSolver:  Solving for p, Initial residual = 0.0108124, Final residual = 5.72326e-09, No Iterations 15
Inside evaluate before updateCoeffs
diagonal:  Solving for rho, Initial residual = 0, Final residual = 0, No Iterations 0
time step continuity errors : sum local = 7.77666e-11, global = 7.76052e-11, cumulative = 2.72103e-10
rho max/min : 1.26165 0.7731
Inside evaluate before updateCoeffs
PIMPLE: iteration 2
smoothSolver:  Solving for Ux, Initial residual = 0.000897801, Final residual = 3.78176e-06, No Iterations 4
smoothSolver:  Solving for Uy, Initial residual = 0.00427159, Final residual = 3.88067e-06, No Iterations 5
Inside evaluate before updateCoeffs
smoothSolver:  Solving for e, Initial residual = 0.0175138, Final residual = 6.88959e-06, No Iterations 9
smoothSolver:  Solving for p, Initial residual = 0.00439737, Final residual = 5.29164e-09, No Iterations 14
Inside evaluate before updateCoeffs
diagonal:  Solving for rho, Initial residual = 0, Final residual = 0, No Iterations 0
time step continuity errors : sum local = 7.27192e-11, global = -6.85899e-11, cumulative = 2.03513e-10
rho max/min : 1.26185 0.771083
Inside evaluate before updateCoeffs
smoothSolver:  Solving for epsilon, Initial residual = 0.00347922, Final residual = 9.58402e-09, No Iterations 14
smoothSolver:  Solving for k, Initial residual = 0.0463508, Final residual = 6.88002e-09, No Iterations 18
ExecutionTime = 3.16 s  ClockTime = 3 s

Courant Number mean: 0.101609 max: 1.02497
Time = 0.000115

PIMPLE: iteration 1
smoothSolver:  Solving for Ux, Initial residual = 0.00271764, Final residual = 8.37185e-06, No Iterations 5
smoothSolver:  Solving for Uy, Initial residual = 0.0286508, Final residual = 5.05402e-06, No Iterations 7
Inside evaluate before updateCoeffs
smoothSolver:  Solving for e, Initial residual = 0.0252426, Final residual = 9.17131e-06, No Iterations 9
smoothSolver:  Solving for p, Initial residual = 0.0108134, Final residual = 5.42695e-09, No Iterations 15
Inside evaluate before updateCoeffs
diagonal:  Solving for rho, Initial residual = 0, Final residual = 0, No Iterations 0
time step continuity errors : sum local = 7.4373e-11, global = 7.42887e-11, cumulative = 2.77802e-10
rho max/min : 1.26123 0.7734
Inside evaluate before updateCoeffs
PIMPLE: iteration 2
smoothSolver:  Solving for Ux, Initial residual = 0.00089908, Final residual = 9.83608e-06, No Iterations 3
smoothSolver:  Solving for Uy, Initial residual = 0.00404251, Final residual = 3.66163e-06, No Iterations 5
Inside evaluate before updateCoeffs
smoothSolver:  Solving for e, Initial residual = 0.0179188, Final residual = 6.64582e-06, No Iterations 9
smoothSolver:  Solving for p, Initial residual = 0.00442226, Final residual = 9.5641e-09, No Iterations 13
Inside evaluate before updateCoeffs
diagonal:  Solving for rho, Initial residual = 0, Final residual = 0, No Iterations 0
time step continuity errors : sum local = 1.32087e-10, global = -1.30095e-10, cumulative = 1.47707e-10
rho max/min : 1.26148 0.771939
Inside evaluate before updateCoeffs
smoothSolver:  Solving for epsilon, Initial residual = 0.00333234, Final residual = 8.91159e-09, No Iterations 14
smoothSolver:  Solving for k, Initial residual = 0.0426816, Final residual = 6.18654e-09, No Iterations 18
ExecutionTime = 3.28 s  ClockTime = 3 s

Courant Number mean: 0.101619 max: 1.03302
Time = 0.00012

PIMPLE: iteration 1
smoothSolver:  Solving for Ux, Initial residual = 0.00271147, Final residual = 7.90188e-06, No Iterations 5
smoothSolver:  Solving for Uy, Initial residual = 0.0276139, Final residual = 4.62509e-06, No Iterations 7
Inside evaluate before updateCoeffs
smoothSolver:  Solving for e, Initial residual = 0.0255621, Final residual = 8.82887e-06, No Iterations 9
smoothSolver:  Solving for p, Initial residual = 0.0108665, Final residual = 5.07465e-09, No Iterations 15
Inside evaluate before updateCoeffs
diagonal:  Solving for rho, Initial residual = 0, Final residual = 0, No Iterations 0
time step continuity errors : sum local = 6.99955e-11, global = 6.9917e-11, cumulative = 2.17624e-10
rho max/min : 1.26073 0.775288
Inside evaluate before updateCoeffs
PIMPLE: iteration 2
smoothSolver:  Solving for Ux, Initial residual = 0.000901154, Final residual = 9.5683e-06, No Iterations 3
smoothSolver:  Solving for Uy, Initial residual = 0.00380916, Final residual = 3.48465e-06, No Iterations 5
Inside evaluate before updateCoeffs
smoothSolver:  Solving for e, Initial residual = 0.0182899, Final residual = 6.43043e-06, No Iterations 9
smoothSolver:  Solving for p, Initial residual = 0.00445075, Final residual = 8.99566e-09, No Iterations 13
Inside evaluate before updateCoeffs
diagonal:  Solving for rho, Initial residual = 0, Final residual = 0, No Iterations 0
time step continuity errors : sum local = 1.24676e-10, global = -1.24261e-10, cumulative = 9.33627e-11
rho max/min : 1.261 0.775452
Inside evaluate before updateCoeffs
smoothSolver:  Solving for epsilon, Initial residual = 0.00319119, Final residual = 8.29503e-09, No Iterations 14
smoothSolver:  Solving for k, Initial residual = 0.0395205, Final residual = 5.60432e-09, No Iterations 18
ExecutionTime = 3.4 s  ClockTime = 3 s

Courant Number mean: 0.101631 max: 1.03682
Time = 0.000125

PIMPLE: iteration 1
smoothSolver:  Solving for Ux, Initial residual = 0.00270962, Final residual = 7.47467e-06, No Iterations 5
smoothSolver:  Solving for Uy, Initial residual = 0.0266101, Final residual = 4.22664e-06, No Iterations 7
Inside evaluate before updateCoeffs
smoothSolver:  Solving for e, Initial residual = 0.0259326, Final residual = 8.5531e-06, No Iterations 9
smoothSolver:  Solving for p, Initial residual = 0.0109293, Final residual = 9.3149e-09, No Iterations 14
Inside evaluate before updateCoeffs
diagonal:  Solving for rho, Initial residual = 0, Final residual = 0, No Iterations 0
time step continuity errors : sum local = 1.29105e-10, global = 1.2884e-10, cumulative = 2.22202e-10
rho max/min : 1.26009 0.779889
Inside evaluate before updateCoeffs
PIMPLE: iteration 2
smoothSolver:  Solving for Ux, Initial residual = 0.00089916, Final residual = 9.30106e-06, No Iterations 3
smoothSolver:  Solving for Uy, Initial residual = 0.00359071, Final residual = 9.83557e-06, No Iterations 4
Inside evaluate before updateCoeffs
smoothSolver:  Solving for e, Initial residual = 0.0186769, Final residual = 6.24075e-06, No Iterations 9
smoothSolver:  Solving for p, Initial residual = 0.00449217, Final residual = 8.27591e-09, No Iterations 13
Inside evaluate before updateCoeffs
diagonal:  Solving for rho, Initial residual = 0, Final residual = 0, No Iterations 0
time step continuity errors : sum local = 1.14994e-10, global = -1.14616e-10, cumulative = 1.07587e-10
rho max/min : 1.26037 0.781797
Inside evaluate before updateCoeffs
smoothSolver:  Solving for epsilon, Initial residual = 0.00305641, Final residual = 7.7389e-09, No Iterations 14
smoothSolver:  Solving for k, Initial residual = 0.0368072, Final residual = 5.10924e-09, No Iterations 18
ExecutionTime = 3.52 s  ClockTime = 3 s

Courant Number mean: 0.101644 max: 1.03649
Time = 0.00013

PIMPLE: iteration 1
smoothSolver:  Solving for Ux, Initial residual = 0.00271237, Final residual = 7.0858e-06, No Iterations 5
smoothSolver:  Solving for Uy, Initial residual = 0.0256086, Final residual = 9.67776e-06, No Iterations 6
Inside evaluate before updateCoeffs
smoothSolver:  Solving for e, Initial residual = 0.0262802, Final residual = 8.3302e-06, No Iterations 9
smoothSolver:  Solving for p, Initial residual = 0.0109741, Final residual = 8.36439e-09, No Iterations 14
Inside evaluate before updateCoeffs
diagonal:  Solving for rho, Initial residual = 0, Final residual = 0, No Iterations 0
time step continuity errors : sum local = 1.16347e-10, global = 1.16094e-10, cumulative = 2.2368e-10
rho max/min : 1.25928 0.787677
Inside evaluate before updateCoeffs
PIMPLE: iteration 2
smoothSolver:  Solving for Ux, Initial residual = 0.000897099, Final residual = 9.06459e-06, No Iterations 3
smoothSolver:  Solving for Uy, Initial residual = 0.00340266, Final residual = 9.43847e-06, No Iterations 4
Inside evaluate before updateCoeffs
smoothSolver:  Solving for e, Initial residual = 0.0190555, Final residual = 6.08079e-06, No Iterations 9
smoothSolver:  Solving for p, Initial residual = 0.00452655, Final residual = 7.4242e-09, No Iterations 13
Inside evaluate before updateCoeffs
diagonal:  Solving for rho, Initial residual = 0, Final residual = 0, No Iterations 0
time step continuity errors : sum local = 1.0335e-10, global = -1.02989e-10, cumulative = 1.20691e-10
rho max/min : 1.25955 0.791383
Inside evaluate before updateCoeffs
smoothSolver:  Solving for epsilon, Initial residual = 0.00293433, Final residual = 7.24201e-09, No Iterations 14
smoothSolver:  Solving for k, Initial residual = 0.0344425, Final residual = 9.23623e-09, No Iterations 17
ExecutionTime = 3.63 s  ClockTime = 3 s

Courant Number mean: 0.101657 max: 1.03479
Time = 0.000135

PIMPLE: iteration 1
smoothSolver:  Solving for Ux, Initial residual = 0.00271444, Final residual = 6.73631e-06, No Iterations 5
smoothSolver:  Solving for Uy, Initial residual = 0.0247352, Final residual = 8.82795e-06, No Iterations 6
Inside evaluate before updateCoeffs
smoothSolver:  Solving for e, Initial residual = 0.0266449, Final residual = 8.14415e-06, No Iterations 9
smoothSolver:  Solving for p, Initial residual = 0.0110463, Final residual = 7.47142e-09, No Iterations 14
Inside evaluate before updateCoeffs
diagonal:  Solving for rho, Initial residual = 0, Final residual = 0, No Iterations 0
time step continuity errors : sum local = 1.04197e-10, global = 1.03952e-10, cumulative = 2.24643e-10
rho max/min : 1.25828 0.795094
Inside evaluate before updateCoeffs
PIMPLE: iteration 2
smoothSolver:  Solving for Ux, Initial residual = 0.000882067, Final residual = 8.8459e-06, No Iterations 3
smoothSolver:  Solving for Uy, Initial residual = 0.0031891, Final residual = 8.99823e-06, No Iterations 4
Inside evaluate before updateCoeffs
smoothSolver:  Solving for e, Initial residual = 0.0193502, Final residual = 5.95124e-06, No Iterations 9
smoothSolver:  Solving for p, Initial residual = 0.00454089, Final residual = 6.72677e-09, No Iterations 13
Inside evaluate before updateCoeffs
diagonal:  Solving for rho, Initial residual = 0, Final residual = 0, No Iterations 0
time step continuity errors : sum local = 9.37624e-11, global = -9.34148e-11, cumulative = 1.31228e-10
rho max/min : 1.25856 0.79609
Inside evaluate before updateCoeffs
smoothSolver:  Solving for epsilon, Initial residual = 0.00281997, Final residual = 6.79466e-09, No Iterations 14
smoothSolver:  Solving for k, Initial residual = 0.032353, Final residual = 8.5344e-09, No Iterations 17
ExecutionTime = 3.75 s  ClockTime = 3 s

Courant Number mean: 0.101671 max: 1.03804
Time = 0.00014

PIMPLE: iteration 1
smoothSolver:  Solving for Ux, Initial residual = 0.00270438, Final residual = 6.42245e-06, No Iterations 5
smoothSolver:  Solving for Uy, Initial residual = 0.0238085, Final residual = 8.04941e-06, No Iterations 6
Inside evaluate before updateCoeffs
smoothSolver:  Solving for e, Initial residual = 0.0270664, Final residual = 8.01103e-06, No Iterations 9
smoothSolver:  Solving for p, Initial residual = 0.0111069, Final residual = 6.60437e-09, No Iterations 14
Inside evaluate before updateCoeffs
diagonal:  Solving for rho, Initial residual = 0, Final residual = 0, No Iterations 0
time step continuity errors : sum local = 9.22801e-11, global = 9.20487e-11, cumulative = 2.23277e-10
rho max/min : 1.25718 0.799156
Inside evaluate before updateCoeffs
PIMPLE: iteration 2
smoothSolver:  Solving for Ux, Initial residual = 0.000892204, Final residual = 8.66073e-06, No Iterations 3
smoothSolver:  Solving for Uy, Initial residual = 0.00303916, Final residual = 8.58097e-06, No Iterations 4
Inside evaluate before updateCoeffs
smoothSolver:  Solving for e, Initial residual = 0.0197102, Final residual = 5.84335e-06, No Iterations 9
smoothSolver:  Solving for p, Initial residual = 0.00458124, Final residual = 5.919e-09, No Iterations 13
Inside evaluate before updateCoeffs
diagonal:  Solving for rho, Initial residual = 0, Final residual = 0, No Iterations 0
time step continuity errors : sum local = 8.25893e-11, global = -8.22593e-11, cumulative = 1.41018e-10
rho max/min : 1.25746 0.797528
Inside evaluate before updateCoeffs
smoothSolver:  Solving for epsilon, Initial residual = 0.00271574, Final residual = 6.39756e-09, No Iterations 14
smoothSolver:  Solving for k, Initial residual = 0.0305334, Final residual = 7.92482e-09, No Iterations 17
ExecutionTime = 3.87 s  ClockTime = 4 s

Courant Number mean: 0.101685 max: 1.03772
Time = 0.000145

PIMPLE: iteration 1
smoothSolver:  Solving for Ux, Initial residual = 0.00271603, Final residual = 6.13988e-06, No Iterations 5
smoothSolver:  Solving for Uy, Initial residual = 0.0230358, Final residual = 7.32717e-06, No Iterations 6
Inside evaluate before updateCoeffs
smoothSolver:  Solving for e, Initial residual = 0.0275435, Final residual = 7.9179e-06, No Iterations 9
smoothSolver:  Solving for p, Initial residual = 0.0111905, Final residual = 5.83359e-09, No Iterations 14
Inside evaluate before updateCoeffs
diagonal:  Solving for rho, Initial residual = 0, Final residual = 0, No Iterations 0
time step continuity errors : sum local = 8.16294e-11, global = 8.14088e-11, cumulative = 2.22426e-10
rho max/min : 1.25606 0.800348
Inside evaluate before updateCoeffs
PIMPLE: iteration 2
smoothSolver:  Solving for Ux, Initial residual = 0.000889615, Final residual = 8.4897e-06, No Iterations 3
smoothSolver:  Solving for Uy, Initial residual = 0.0029319, Final residual = 8.17024e-06, No Iterations 4
Inside evaluate before updateCoeffs
smoothSolver:  Solving for e, Initial residual = 0.020071, Final residual = 5.75784e-06, No Iterations 9
smoothSolver:  Solving for p, Initial residual = 0.00461185, Final residual = 5.0592e-09, No Iterations 13
Inside evaluate before updateCoeffs
diagonal:  Solving for rho, Initial residual = 0, Final residual = 0, No Iterations 0
time step continuity errors : sum local = 7.06535e-11, global = -7.03372e-11, cumulative = 1.52089e-10
rho max/min : 1.25636 0.801164
Inside evaluate before updateCoeffs
smoothSolver:  Solving for epsilon, Initial residual = 0.00262348, Final residual = 6.04182e-09, No Iterations 14
smoothSolver:  Solving for k, Initial residual = 0.0289239, Final residual = 7.39966e-09, No Iterations 17
ExecutionTime = 3.99 s  ClockTime = 4 s

Courant Number mean: 0.101701 max: 1.03362
Time = 0.00015

PIMPLE: iteration 1
smoothSolver:  Solving for Ux, Initial residual = 0.00271335, Final residual = 5.89122e-06, No Iterations 5
smoothSolver:  Solving for Uy, Initial residual = 0.0222936, Final residual = 6.66683e-06, No Iterations 6
Inside evaluate before updateCoeffs
smoothSolver:  Solving for e, Initial residual = 0.0281108, Final residual = 7.85384e-06, No Iterations 9
smoothSolver:  Solving for p, Initial residual = 0.0112864, Final residual = 5.15669e-09, No Iterations 14
Inside evaluate before updateCoeffs
diagonal:  Solving for rho, Initial residual = 0, Final residual = 0, No Iterations 0
time step continuity errors : sum local = 7.22362e-11, global = 7.2028e-11, cumulative = 2.24117e-10
rho max/min : 1.25476 0.804329
Inside evaluate before updateCoeffs
PIMPLE: iteration 2
smoothSolver:  Solving for Ux, Initial residual = 0.000884288, Final residual = 8.35051e-06, No Iterations 3
smoothSolver:  Solving for Uy, Initial residual = 0.00281494, Final residual = 7.76184e-06, No Iterations 4
Inside evaluate before updateCoeffs
smoothSolver:  Solving for e, Initial residual = 0.0204529, Final residual = 5.6999e-06, No Iterations 9
smoothSolver:  Solving for p, Initial residual = 0.00464368, Final residual = 9.25069e-09, No Iterations 12
Inside evaluate before updateCoeffs
diagonal:  Solving for rho, Initial residual = 0, Final residual = 0, No Iterations 0
time step continuity errors : sum local = 1.29286e-10, global = -1.28217e-10, cumulative = 9.59003e-11
rho max/min : 1.25506 0.806766
Inside evaluate before updateCoeffs
smoothSolver:  Solving for epsilon, Initial residual = 0.00253364, Final residual = 5.72879e-09, No Iterations 14
smoothSolver:  Solving for k, Initial residual = 0.0274891, Final residual = 6.9378e-09, No Iterations 17
ExecutionTime = 4.11 s  ClockTime = 4 s

Courant Number mean: 0.101717 max: 1.02577
Time = 0.000155

PIMPLE: iteration 1
smoothSolver:  Solving for Ux, Initial residual = 0.00271044, Final residual = 5.67156e-06, No Iterations 5
smoothSolver:  Solving for Uy, Initial residual = 0.0215774, Final residual = 6.06571e-06, No Iterations 6
Inside evaluate before updateCoeffs
smoothSolver:  Solving for e, Initial residual = 0.0286339, Final residual = 7.81155e-06, No Iterations 9
smoothSolver:  Solving for p, Initial residual = 0.0113846, Final residual = 9.16809e-09, No Iterations 13
Inside evaluate before updateCoeffs
diagonal:  Solving for rho, Initial residual = 0, Final residual = 0, No Iterations 0
time step continuity errors : sum local = 1.28544e-10, global = 1.27844e-10, cumulative = 2.23745e-10
rho max/min : 1.25329 0.810672
Inside evaluate before updateCoeffs
PIMPLE: iteration 2
smoothSolver:  Solving for Ux, Initial residual = 0.000882021, Final residual = 8.22771e-06, No Iterations 3
smoothSolver:  Solving for Uy, Initial residual = 0.00265742, Final residual = 7.35329e-06, No Iterations 4
Inside evaluate before updateCoeffs
smoothSolver:  Solving for e, Initial residual = 0.020777, Final residual = 5.65998e-06, No Iterations 9
smoothSolver:  Solving for p, Initial residual = 0.00468155, Final residual = 8.16944e-09, No Iterations 12
Inside evaluate before updateCoeffs
diagonal:  Solving for rho, Initial residual = 0, Final residual = 0, No Iterations 0
time step continuity errors : sum local = 1.14271e-10, global = -1.12113e-10, cumulative = 1.11631e-10
rho max/min : 1.2536 0.814569
Inside evaluate before updateCoeffs
smoothSolver:  Solving for epsilon, Initial residual = 0.00245219, Final residual = 5.45023e-09, No Iterations 14
smoothSolver:  Solving for k, Initial residual = 0.0262145, Final residual = 6.53353e-09, No Iterations 17
ExecutionTime = 4.22 s  ClockTime = 4 s

Courant Number mean: 0.101734 max: 1.01558
Time = 0.00016

PIMPLE: iteration 1
smoothSolver:  Solving for Ux, Initial residual = 0.00271545, Final residual = 5.47448e-06, No Iterations 5
smoothSolver:  Solving for Uy, Initial residual = 0.0208904, Final residual = 5.51147e-06, No Iterations 6
Inside evaluate before updateCoeffs
smoothSolver:  Solving for e, Initial residual = 0.0289864, Final residual = 7.7943e-06, No Iterations 9
smoothSolver:  Solving for p, Initial residual = 0.0114808, Final residual = 8.07529e-09, No Iterations 13
Inside evaluate before updateCoeffs
diagonal:  Solving for rho, Initial residual = 0, Final residual = 0, No Iterations 0
time step continuity errors : sum local = 1.13321e-10, global = 1.10441e-10, cumulative = 2.22072e-10
rho max/min : 1.25164 0.818656
Inside evaluate before updateCoeffs
PIMPLE: iteration 2
smoothSolver:  Solving for Ux, Initial residual = 0.000885962, Final residual = 8.11105e-06, No Iterations 3
smoothSolver:  Solving for Uy, Initial residual = 0.0025413, Final residual = 6.96388e-06, No Iterations 4
Inside evaluate before updateCoeffs
smoothSolver:  Solving for e, Initial residual = 0.0210679, Final residual = 5.63467e-06, No Iterations 9
smoothSolver:  Solving for p, Initial residual = 0.00473661, Final residual = 7.46324e-09, No Iterations 12
Inside evaluate before updateCoeffs
diagonal:  Solving for rho, Initial residual = 0, Final residual = 0, No Iterations 0
time step continuity errors : sum local = 1.04498e-10, global = -9.76895e-11, cumulative = 1.24382e-10
rho max/min : 1.25194 0.824057
Inside evaluate before updateCoeffs
smoothSolver:  Solving for epsilon, Initial residual = 0.00237794, Final residual = 5.20526e-09, No Iterations 14
smoothSolver:  Solving for k, Initial residual = 0.0250738, Final residual = 6.17596e-09, No Iterations 17
ExecutionTime = 4.34 s  ClockTime = 4 s

Courant Number mean: 0.10175 max: 1.01303
Time = 0.000165

PIMPLE: iteration 1
smoothSolver:  Solving for Ux, Initial residual = 0.00272349, Final residual = 5.29692e-06, No Iterations 5
smoothSolver:  Solving for Uy, Initial residual = 0.0202746, Final residual = 5.00225e-06, No Iterations 6
Inside evaluate before updateCoeffs
smoothSolver:  Solving for e, Initial residual = 0.0293939, Final residual = 7.79841e-06, No Iterations 9
smoothSolver:  Solving for p, Initial residual = 0.0115599, Final residual = 7.48058e-09, No Iterations 13
Inside evaluate before updateCoeffs
diagonal:  Solving for rho, Initial residual = 0, Final residual = 0, No Iterations 0
time step continuity errors : sum local = 1.05074e-10, global = 9.71619e-11, cumulative = 2.21544e-10
rho max/min : 1.2498 0.827452
Inside evaluate before updateCoeffs
PIMPLE: iteration 2
smoothSolver:  Solving for Ux, Initial residual = 0.000887892, Final residual = 8.01637e-06, No Iterations 3
smoothSolver:  Solving for Uy, Initial residual = 0.00244984, Final residual = 6.57545e-06, No Iterations 4
Inside evaluate before updateCoeffs
smoothSolver:  Solving for e, Initial residual = 0.0213634, Final residual = 5.62083e-06, No Iterations 9
smoothSolver:  Solving for p, Initial residual = 0.00476805, Final residual = 6.98409e-09, No Iterations 12
Inside evaluate before updateCoeffs
diagonal:  Solving for rho, Initial residual = 0, Final residual = 0, No Iterations 0
time step continuity errors : sum local = 9.79033e-11, global = -8.36723e-11, cumulative = 1.37872e-10
rho max/min : 1.25011 0.826755
Inside evaluate before updateCoeffs
smoothSolver:  Solving for epsilon, Initial residual = 0.00231224, Final residual = 9.97584e-09, No Iterations 13
smoothSolver:  Solving for k, Initial residual = 0.0240169, Final residual = 5.85533e-09, No Iterations 17
ExecutionTime = 4.45 s  ClockTime = 4 s

Courant Number mean: 0.101766 max: 1.00758
Time = 0.00017

PIMPLE: iteration 1
smoothSolver:  Solving for Ux, Initial residual = 0.00272831, Final residual = 5.14068e-06, No Iterations 5
smoothSolver:  Solving for Uy, Initial residual = 0.0197283, Final residual = 4.54011e-06, No Iterations 6
Inside evaluate before updateCoeffs
smoothSolver:  Solving for e, Initial residual = 0.0298314, Final residual = 7.81708e-06, No Iterations 9
smoothSolver:  Solving for p, Initial residual = 0.0116485, Final residual = 7.28301e-09, No Iterations 13
Inside evaluate before updateCoeffs
diagonal:  Solving for rho, Initial residual = 0, Final residual = 0, No Iterations 0
time step continuity errors : sum local = 1.02401e-10, global = 8.82681e-11, cumulative = 2.2614e-10
rho max/min : 1.24781 0.828961
Inside evaluate before updateCoeffs
PIMPLE: iteration 2
smoothSolver:  Solving for Ux, Initial residual = 0.000887916, Final residual = 7.93237e-06, No Iterations 3
smoothSolver:  Solving for Uy, Initial residual = 0.00236061, Final residual = 6.18878e-06, No Iterations 4
Inside evaluate before updateCoeffs
smoothSolver:  Solving for e, Initial residual = 0.0216374, Final residual = 5.61691e-06, No Iterations 9
smoothSolver:  Solving for p, Initial residual = 0.00479407, Final residual = 6.67959e-09, No Iterations 12
Inside evaluate before updateCoeffs
diagonal:  Solving for rho, Initial residual = 0, Final residual = 0, No Iterations 0
time step continuity errors : sum local = 9.37483e-11, global = -7.19706e-11, cumulative = 1.5417e-10
rho max/min : 1.24814 0.828914
Inside evaluate before updateCoeffs
smoothSolver:  Solving for epsilon, Initial residual = 0.00224863, Final residual = 9.58804e-09, No Iterations 13
smoothSolver:  Solving for k, Initial residual = 0.0230686, Final residual = 5.56993e-09, No Iterations 17
ExecutionTime = 4.57 s  ClockTime = 4 s

Courant Number mean: 0.101783 max: 0.999291
Time = 0.000175

PIMPLE: iteration 1
smoothSolver:  Solving for Ux, Initial residual = 0.00272789, Final residual = 5.00078e-06, No Iterations 5
smoothSolver:  Solving for Uy, Initial residual = 0.019202, Final residual = 4.11619e-06, No Iterations 6
Inside evaluate before updateCoeffs
smoothSolver:  Solving for e, Initial residual = 0.0302979, Final residual = 7.8468e-06, No Iterations 9
smoothSolver:  Solving for p, Initial residual = 0.0117371, Final residual = 7.28916e-09, No Iterations 13
Inside evaluate before updateCoeffs
diagonal:  Solving for rho, Initial residual = 0, Final residual = 0, No Iterations 0
time step continuity errors : sum local = 1.02592e-10, global = 8.3227e-11, cumulative = 2.37397e-10
rho max/min : 1.24569 0.831473
Inside evaluate before updateCoeffs
PIMPLE: iteration 2
smoothSolver:  Solving for Ux, Initial residual = 0.000884878, Final residual = 7.84681e-06, No Iterations 3
smoothSolver:  Solving for Uy, Initial residual = 0.00226114, Final residual = 5.81642e-06, No Iterations 4
Inside evaluate before updateCoeffs
smoothSolver:  Solving for e, Initial residual = 0.0219678, Final residual = 5.62331e-06, No Iterations 9
smoothSolver:  Solving for p, Initial residual = 0.0048307, Final residual = 6.77754e-09, No Iterations 12
Inside evaluate before updateCoeffs
diagonal:  Solving for rho, Initial residual = 0, Final residual = 0, No Iterations 0
time step continuity errors : sum local = 9.52412e-11, global = -6.65159e-11, cumulative = 1.70881e-10
rho max/min : 1.24604 0.832882
Inside evaluate before updateCoeffs
smoothSolver:  Solving for epsilon, Initial residual = 0.0021907, Final residual = 9.24132e-09, No Iterations 13
smoothSolver:  Solving for k, Initial residual = 0.0222008, Final residual = 5.30859e-09, No Iterations 17
ExecutionTime = 4.68 s  ClockTime = 4 s

Courant Number mean: 0.101801 max: 0.988061
Time = 0.00018

PIMPLE: iteration 1
smoothSolver:  Solving for Ux, Initial residual = 0.00272412, Final residual = 4.87332e-06, No Iterations 5
smoothSolver:  Solving for Uy, Initial residual = 0.0186877, Final residual = 9.90877e-06, No Iterations 5
Inside evaluate before updateCoeffs
smoothSolver:  Solving for e, Initial residual = 0.0307344, Final residual = 7.86926e-06, No Iterations 9
smoothSolver:  Solving for p, Initial residual = 0.0118047, Final residual = 7.21151e-09, No Iterations 13
Inside evaluate before updateCoeffs
diagonal:  Solving for rho, Initial residual = 0, Final residual = 0, No Iterations 0
time step continuity errors : sum local = 1.01612e-10, global = 7.6899e-11, cumulative = 2.4778e-10
rho max/min : 1.24345 0.835766
Inside evaluate before updateCoeffs
PIMPLE: iteration 2
smoothSolver:  Solving for Ux, Initial residual = 0.00088102, Final residual = 7.75948e-06, No Iterations 3
smoothSolver:  Solving for Uy, Initial residual = 0.00217397, Final residual = 5.43216e-06, No Iterations 4
Inside evaluate before updateCoeffs
smoothSolver:  Solving for e, Initial residual = 0.0222795, Final residual = 5.63359e-06, No Iterations 9
smoothSolver:  Solving for p, Initial residual = 0.00486244, Final residual = 6.90301e-09, No Iterations 12
Inside evaluate before updateCoeffs
diagonal:  Solving for rho, Initial residual = 0, Final residual = 0, No Iterations 0
time step continuity errors : sum local = 9.71411e-11, global = -6.28024e-11, cumulative = 1.84977e-10
rho max/min : 1.24382 0.838476
Inside evaluate before updateCoeffs
smoothSolver:  Solving for epsilon, Initial residual = 0.00213736, Final residual = 8.92538e-09, No Iterations 13
smoothSolver:  Solving for k, Initial residual = 0.0214111, Final residual = 5.07293e-09, No Iterations 17
ExecutionTime = 4.8 s  ClockTime = 4 s

Courant Number mean: 0.101817 max: 0.976631
Time = 0.000185

PIMPLE: iteration 1
smoothSolver:  Solving for Ux, Initial residual = 0.00272015, Final residual = 4.75595e-06, No Iterations 5
smoothSolver:  Solving for Uy, Initial residual = 0.0182514, Final residual = 9.02561e-06, No Iterations 5
Inside evaluate before updateCoeffs
smoothSolver:  Solving for e, Initial residual = 0.031105, Final residual = 7.89752e-06, No Iterations 9
smoothSolver:  Solving for p, Initial residual = 0.0118671, Final residual = 7.17493e-09, No Iterations 13
Inside evaluate before updateCoeffs
diagonal:  Solving for rho, Initial residual = 0, Final residual = 0, No Iterations 0
time step continuity errors : sum local = 1.01222e-10, global = 6.95829e-11, cumulative = 2.5456e-10
rho max/min : 1.24114 0.841075
Inside evaluate before updateCoeffs
PIMPLE: iteration 2
smoothSolver:  Solving for Ux, Initial residual = 0.00087942, Final residual = 7.6888e-06, No Iterations 3
smoothSolver:  Solving for Uy, Initial residual = 0.00208383, Final residual = 5.07974e-06, No Iterations 4
Inside evaluate before updateCoeffs
smoothSolver:  Solving for e, Initial residual = 0.0225687, Final residual = 5.64585e-06, No Iterations 9
smoothSolver:  Solving for p, Initial residual = 0.00488916, Final residual = 6.99299e-09, No Iterations 12
Inside evaluate before updateCoeffs
diagonal:  Solving for rho, Initial residual = 0, Final residual = 0, No Iterations 0
time step continuity errors : sum local = 9.85626e-11, global = -5.78905e-11, cumulative = 1.9667e-10
rho max/min : 1.24153 0.844939
Inside evaluate before updateCoeffs
smoothSolver:  Solving for epsilon, Initial residual = 0.00208557, Final residual = 8.64008e-09, No Iterations 13
smoothSolver:  Solving for k, Initial residual = 0.0206887, Final residual = 9.65322e-09, No Iterations 16
ExecutionTime = 4.92 s  ClockTime = 5 s

Courant Number mean: 0.101833 max: 0.971907
Time = 0.00019

PIMPLE: iteration 1
smoothSolver:  Solving for Ux, Initial residual = 0.00271807, Final residual = 4.64686e-06, No Iterations 5
smoothSolver:  Solving for Uy, Initial residual = 0.0178391, Final residual = 8.22107e-06, No Iterations 5
Inside evaluate before updateCoeffs
smoothSolver:  Solving for e, Initial residual = 0.0315272, Final residual = 7.92568e-06, No Iterations 9
smoothSolver:  Solving for p, Initial residual = 0.0119359, Final residual = 7.11043e-09, No Iterations 13
Inside evaluate before updateCoeffs
diagonal:  Solving for rho, Initial residual = 0, Final residual = 0, No Iterations 0
time step continuity errors : sum local = 1.0045e-10, global = 6.44029e-11, cumulative = 2.61072e-10
rho max/min : 1.23879 0.847245
Inside evaluate before updateCoeffs
PIMPLE: iteration 2
smoothSolver:  Solving for Ux, Initial residual = 0.000877137, Final residual = 7.62037e-06, No Iterations 3
smoothSolver:  Solving for Uy, Initial residual = 0.00199699, Final residual = 4.74618e-06, No Iterations 4
Inside evaluate before updateCoeffs
smoothSolver:  Solving for e, Initial residual = 0.0227922, Final residual = 5.65782e-06, No Iterations 9
smoothSolver:  Solving for p, Initial residual = 0.00490733, Final residual = 7.05311e-09, No Iterations 12
Inside evaluate before updateCoeffs
diagonal:  Solving for rho, Initial residual = 0, Final residual = 0, No Iterations 0
time step continuity errors : sum local = 9.95831e-11, global = -5.32633e-11, cumulative = 2.07809e-10
rho max/min : 1.23917 0.847008
Inside evaluate before updateCoeffs
smoothSolver:  Solving for epsilon, Initial residual = 0.00203883, Final residual = 8.37774e-09, No Iterations 13
smoothSolver:  Solving for k, Initial residual = 0.0200262, Final residual = 9.25677e-09, No Iterations 16
ExecutionTime = 5.03 s  ClockTime = 5 s

Courant Number mean: 0.10185 max: 0.965194
Time = 0.000195

PIMPLE: iteration 1
smoothSolver:  Solving for Ux, Initial residual = 0.00271576, Final residual = 4.54447e-06, No Iterations 5
smoothSolver:  Solving for Uy, Initial residual = 0.0174233, Final residual = 7.48447e-06, No Iterations 5
Inside evaluate before updateCoeffs
smoothSolver:  Solving for e, Initial residual = 0.0319104, Final residual = 7.94704e-06, No Iterations 9
smoothSolver:  Solving for p, Initial residual = 0.011992, Final residual = 7.09467e-09, No Iterations 13
Inside evaluate before updateCoeffs
diagonal:  Solving for rho, Initial residual = 0, Final residual = 0, No Iterations 0
time step continuity errors : sum local = 1.00381e-10, global = 6.15435e-11, cumulative = 2.69353e-10
rho max/min : 1.23641 0.847959
Inside evaluate before updateCoeffs
PIMPLE: iteration 2
smoothSolver:  Solving for Ux, Initial residual = 0.000873294, Final residual = 7.54467e-06, No Iterations 3
smoothSolver:  Solving for Uy, Initial residual = 0.00190864, Final residual = 4.42895e-06, No Iterations 4
Inside evaluate before updateCoeffs
smoothSolver:  Solving for e, Initial residual = 0.0230084, Final residual = 5.66623e-06, No Iterations 9
smoothSolver:  Solving for p, Initial residual = 0.00493016, Final residual = 7.00272e-09, No Iterations 12
Inside evaluate before updateCoeffs
diagonal:  Solving for rho, Initial residual = 0, Final residual = 0, No Iterations 0
time step continuity errors : sum local = 9.90498e-11, global = -4.60542e-11, cumulative = 2.23298e-10
rho max/min : 1.23677 0.847914
Inside evaluate before updateCoeffs
smoothSolver:  Solving for epsilon, Initial residual = 0.00199505, Final residual = 8.13378e-09, No Iterations 13
smoothSolver:  Solving for k, Initial residual = 0.0194197, Final residual = 8.88309e-09, No Iterations 16
ExecutionTime = 5.14 s  ClockTime = 5 s

Courant Number mean: 0.101866 max: 0.956439
Time = 0.0002

PIMPLE: iteration 1
smoothSolver:  Solving for Ux, Initial residual = 0.00271059, Final residual = 4.44739e-06, No Iterations 5
smoothSolver:  Solving for Uy, Initial residual = 0.017036, Final residual = 6.82168e-06, No Iterations 5
Inside evaluate before updateCoeffs
smoothSolver:  Solving for e, Initial residual = 0.0322362, Final residual = 7.96094e-06, No Iterations 9
smoothSolver:  Solving for p, Initial residual = 0.012036, Final residual = 7.13983e-09, No Iterations 13
Inside evaluate before updateCoeffs
diagonal:  Solving for rho, Initial residual = 0, Final residual = 0, No Iterations 0
time step continuity errors : sum local = 1.01178e-10, global = 6.02256e-11, cumulative = 2.83524e-10
rho max/min : 1.234 0.849295
Inside evaluate before updateCoeffs
PIMPLE: iteration 2
smoothSolver:  Solving for Ux, Initial residual = 0.000870898, Final residual = 7.46272e-06, No Iterations 3
smoothSolver:  Solving for Uy, Initial residual = 0.00183063, Final residual = 4.1216e-06, No Iterations 4
Inside evaluate before updateCoeffs
smoothSolver:  Solving for e, Initial residual = 0.0232269, Final residual = 5.67485e-06, No Iterations 9
smoothSolver:  Solving for p, Initial residual = 0.00495059, Final residual = 7.12493e-09, No Iterations 12
Inside evaluate before updateCoeffs
diagonal:  Solving for rho, Initial residual = 0, Final residual = 0, No Iterations 0
time step continuity errors : sum local = 1.00955e-10, global = -4.51965e-11, cumulative = 2.38328e-10
rho max/min : 1.23435 0.85054
Inside evaluate before updateCoeffs
smoothSolver:  Solving for epsilon, Initial residual = 0.00195577, Final residual = 7.90638e-09, No Iterations 13
smoothSolver:  Solving for k, Initial residual = 0.0188563, Final residual = 8.53619e-09, No Iterations 16
ExecutionTime = 5.4 s  ClockTime = 5 s

Courant Number mean: 0.101882 max: 0.945863
Time = 0.000205

PIMPLE: iteration 1
smoothSolver:  Solving for Ux, Initial residual = 0.0027066, Final residual = 4.3549e-06, No Iterations 5
smoothSolver:  Solving for Uy, Initial residual = 0.0167089, Final residual = 6.23801e-06, No Iterations 5
Inside evaluate before updateCoeffs
smoothSolver:  Solving for e, Initial residual = 0.0325495, Final residual = 7.96518e-06, No Iterations 9
smoothSolver:  Solving for p, Initial residual = 0.0120803, Final residual = 7.13552e-09, No Iterations 13
Inside evaluate before updateCoeffs
diagonal:  Solving for rho, Initial residual = 0, Final residual = 0, No Iterations 0
time step continuity errors : sum local = 1.01279e-10, global = 5.79695e-11, cumulative = 2.96297e-10
rho max/min : 1.23159 0.852248
Inside evaluate before updateCoeffs
PIMPLE: iteration 2
smoothSolver:  Solving for Ux, Initial residual = 0.000869122, Final residual = 7.38821e-06, No Iterations 3
smoothSolver:  Solving for Uy, Initial residual = 0.00176027, Final residual = 3.82812e-06, No Iterations 4
Inside evaluate before updateCoeffs
smoothSolver:  Solving for e, Initial residual = 0.0234467, Final residual = 5.6762e-06, No Iterations 9
smoothSolver:  Solving for p, Initial residual = 0.00496727, Final residual = 7.15762e-09, No Iterations 12
Inside evaluate before updateCoeffs
diagonal:  Solving for rho, Initial residual = 0, Final residual = 0, No Iterations 0
time step continuity errors : sum local = 1.016e-10, global = -4.58247e-11, cumulative = 2.50472e-10
rho max/min : 1.23194 0.854527
Inside evaluate before updateCoeffs
smoothSolver:  Solving for epsilon, Initial residual = 0.00191831, Final residual = 7.68956e-09, No Iterations 13
smoothSolver:  Solving for k, Initial residual = 0.0183341, Final residual = 8.20504e-09, No Iterations 16
ExecutionTime = 5.51 s  ClockTime = 5 s

Courant Number mean: 0.101897 max: 0.934353
Time = 0.00021

PIMPLE: iteration 1
smoothSolver:  Solving for Ux, Initial residual = 0.00270214, Final residual = 4.26518e-06, No Iterations 5
smoothSolver:  Solving for Uy, Initial residual = 0.0163917, Final residual = 5.72336e-06, No Iterations 5
Inside evaluate before updateCoeffs
smoothSolver:  Solving for e, Initial residual = 0.0328674, Final residual = 7.95843e-06, No Iterations 9
smoothSolver:  Solving for p, Initial residual = 0.0121215, Final residual = 7.0199e-09, No Iterations 13
Inside evaluate before updateCoeffs
diagonal:  Solving for rho, Initial residual = 0, Final residual = 0, No Iterations 0
time step continuity errors : sum local = 9.98048e-11, global = 5.57891e-11, cumulative = 3.06261e-10
rho max/min : 1.2292 0.856447
Inside evaluate before updateCoeffs
PIMPLE: iteration 2
smoothSolver:  Solving for Ux, Initial residual = 0.000866615, Final residual = 7.30754e-06, No Iterations 3
smoothSolver:  Solving for Uy, Initial residual = 0.00169482, Final residual = 3.55961e-06, No Iterations 4
Inside evaluate before updateCoeffs
smoothSolver:  Solving for e, Initial residual = 0.0236611, Final residual = 5.66996e-06, No Iterations 9
[...]
Inside evaluate before updateCoeffs
smoothSolver:  Solving for e, Initial residual = 0.0300136, Final residual = 5.38003e-06, No Iterations 7
smoothSolver:  Solving for p, Initial residual = 0.00501374, Final residual = 7.95914e-09, No Iterations 9
Inside evaluate before updateCoeffs
diagonal:  Solving for rho, Initial residual = 0, Final residual = 0, No Iterations 0
time step continuity errors : sum local = 1.21131e-10, global = -6.21582e-11, cumulative = 1.40398e-09
rho max/min : 1.19216 0.998367
Inside evaluate before updateCoeffs
smoothSolver:  Solving for epsilon, Initial residual = 0.000885144, Final residual = 6.88321e-09, No Iterations 11
smoothSolver:  Solving for k, Initial residual = 0.00686061, Final residual = 9.74644e-09, No Iterations 13
ExecutionTime = 15.94 s  ClockTime = 16 s

Courant Number mean: 0.102409 max: 0.539962
Time = 0.000665

PIMPLE: iteration 1
smoothSolver:  Solving for Ux, Initial residual = 0.00197608, Final residual = 7.05496e-06, No Iterations 3
smoothSolver:  Solving for Uy, Initial residual = 0.00709182, Final residual = 6.70655e-06, No Iterations 3
Inside evaluate before updateCoeffs
smoothSolver:  Solving for e, Initial residual = 0.0417272, Final residual = 7.38752e-06, No Iterations 7
smoothSolver:  Solving for p, Initial residual = 0.0121198, Final residual = 7.87678e-09, No Iterations 10
Inside evaluate before updateCoeffs
diagonal:  Solving for rho, Initial residual = 0, Final residual = 0, No Iterations 0
time step continuity errors : sum local = 1.19992e-10, global = 8.17779e-11, cumulative = 1.48576e-09
rho max/min : 1.19215 0.999057
Inside evaluate before updateCoeffs
PIMPLE: iteration 2
smoothSolver:  Solving for Ux, Initial residual = 0.000636137, Final residual = 3.86502e-06, No Iterations 2
smoothSolver:  Solving for Uy, Initial residual = 0.000199197, Final residual = 1.68141e-06, No Iterations 2
Inside evaluate before updateCoeffs
smoothSolver:  Solving for e, Initial residual = 0.0299658, Final residual = 5.30318e-06, No Iterations 7
smoothSolver:  Solving for p, Initial residual = 0.00501046, Final residual = 7.74138e-09, No Iterations 9
Inside evaluate before updateCoeffs
diagonal:  Solving for rho, Initial residual = 0, Final residual = 0, No Iterations 0
time step continuity errors : sum local = 1.17852e-10, global = -6.03633e-11, cumulative = 1.4254e-09
rho max/min : 1.19215 0.999095
Inside evaluate before updateCoeffs
smoothSolver:  Solving for epsilon, Initial residual = 0.000881825, Final residual = 6.81774e-09, No Iterations 11
smoothSolver:  Solving for k, Initial residual = 0.00682237, Final residual = 9.63803e-09, No Iterations 13
ExecutionTime = 16.03 s  ClockTime = 16 s

Courant Number mean: 0.10241 max: 0.538029
Time = 0.00067

PIMPLE: iteration 1
smoothSolver:  Solving for Ux, Initial residual = 0.00197127, Final residual = 6.98711e-06, No Iterations 3
smoothSolver:  Solving for Uy, Initial residual = 0.00705713, Final residual = 6.60725e-06, No Iterations 3
Inside evaluate before updateCoeffs
smoothSolver:  Solving for e, Initial residual = 0.0416521, Final residual = 7.2974e-06, No Iterations 7
smoothSolver:  Solving for p, Initial residual = 0.0121098, Final residual = 7.71602e-09, No Iterations 10
Inside evaluate before updateCoeffs
diagonal:  Solving for rho, Initial residual = 0, Final residual = 0, No Iterations 0
time step continuity errors : sum local = 1.17581e-10, global = 8.03523e-11, cumulative = 1.50575e-09
rho max/min : 1.19214 0.999781
Inside evaluate before updateCoeffs
PIMPLE: iteration 2
smoothSolver:  Solving for Ux, Initial residual = 0.000634402, Final residual = 3.80809e-06, No Iterations 2
smoothSolver:  Solving for Uy, Initial residual = 0.000196066, Final residual = 1.64866e-06, No Iterations 2
Inside evaluate before updateCoeffs
smoothSolver:  Solving for e, Initial residual = 0.0299104, Final residual = 5.23373e-06, No Iterations 7
smoothSolver:  Solving for p, Initial residual = 0.00500555, Final residual = 7.5326e-09, No Iterations 9
Inside evaluate before updateCoeffs
diagonal:  Solving for rho, Initial residual = 0, Final residual = 0, No Iterations 0
time step continuity errors : sum local = 1.14711e-10, global = -5.8619e-11, cumulative = 1.44713e-09
rho max/min : 1.19213 0.999816
Inside evaluate before updateCoeffs
smoothSolver:  Solving for epsilon, Initial residual = 0.000878946, Final residual = 6.75372e-09, No Iterations 11
smoothSolver:  Solving for k, Initial residual = 0.00678807, Final residual = 9.53123e-09, No Iterations 13
ExecutionTime = 16.14 s  ClockTime = 16 s

Courant Number mean: 0.102411 max: 0.537565
Time = 0.000675

PIMPLE: iteration 1
smoothSolver:  Solving for Ux, Initial residual = 0.0019663, Final residual = 6.91408e-06, No Iterations 3
smoothSolver:  Solving for Uy, Initial residual = 0.00701713, Final residual = 6.51246e-06, No Iterations 3
Inside evaluate before updateCoeffs
smoothSolver:  Solving for e, Initial residual = 0.0415949, Final residual = 7.17965e-06, No Iterations 7
smoothSolver:  Solving for p, Initial residual = 0.0121075, Final residual = 7.56487e-09, No Iterations 10
Inside evaluate before updateCoeffs
diagonal:  Solving for rho, Initial residual = 0, Final residual = 0, No Iterations 0
time step continuity errors : sum local = 1.15315e-10, global = 7.9017e-11, cumulative = 1.52615e-09
rho max/min : 1.19212 1.0005
Inside evaluate before updateCoeffs
PIMPLE: iteration 2
smoothSolver:  Solving for Ux, Initial residual = 0.000632525, Final residual = 3.76219e-06, No Iterations 2
smoothSolver:  Solving for Uy, Initial residual = 0.000195806, Final residual = 1.61018e-06, No Iterations 2
Inside evaluate before updateCoeffs
smoothSolver:  Solving for e, Initial residual = 0.0298459, Final residual = 5.159e-06, No Iterations 7
smoothSolver:  Solving for p, Initial residual = 0.00500081, Final residual = 7.33221e-09, No Iterations 9
Inside evaluate before updateCoeffs
diagonal:  Solving for rho, Initial residual = 0, Final residual = 0, No Iterations 0
time step continuity errors : sum local = 1.11695e-10, global = -5.6917e-11, cumulative = 1.46923e-09
rho max/min : 1.19212 1.00053
Inside evaluate before updateCoeffs
smoothSolver:  Solving for epsilon, Initial residual = 0.000875962, Final residual = 6.69049e-09, No Iterations 11
smoothSolver:  Solving for k, Initial residual = 0.00675292, Final residual = 9.42565e-09, No Iterations 13
ExecutionTime = 16.24 s  ClockTime = 16 s

Courant Number mean: 0.102411 max: 0.537108
Time = 0.00068

PIMPLE: iteration 1
smoothSolver:  Solving for Ux, Initial residual = 0.00196013, Final residual = 6.85153e-06, No Iterations 3
smoothSolver:  Solving for Uy, Initial residual = 0.00697859, Final residual = 6.42367e-06, No Iterations 3
Inside evaluate before updateCoeffs
smoothSolver:  Solving for e, Initial residual = 0.0415287, Final residual = 7.08902e-06, No Iterations 7
smoothSolver:  Solving for p, Initial residual = 0.0120999, Final residual = 7.42963e-09, No Iterations 10
Inside evaluate before updateCoeffs
diagonal:  Solving for rho, Initial residual = 0, Final residual = 0, No Iterations 0
time step continuity errors : sum local = 1.1329e-10, global = 7.78672e-11, cumulative = 1.5471e-09
rho max/min : 1.19211 1.00121
Inside evaluate before updateCoeffs
PIMPLE: iteration 2
smoothSolver:  Solving for Ux, Initial residual = 0.000631509, Final residual = 3.70677e-06, No Iterations 2
smoothSolver:  Solving for Uy, Initial residual = 0.00018995, Final residual = 1.57329e-06, No Iterations 2
Inside evaluate before updateCoeffs
smoothSolver:  Solving for e, Initial residual = 0.0297918, Final residual = 5.08413e-06, No Iterations 7
smoothSolver:  Solving for p, Initial residual = 0.00499951, Final residual = 7.1605e-09, No Iterations 9
Inside evaluate before updateCoeffs
diagonal:  Solving for rho, Initial residual = 0, Final residual = 0, No Iterations 0
time step continuity errors : sum local = 1.09113e-10, global = -5.56326e-11, cumulative = 1.49146e-09
rho max/min : 1.19211 1.00124
Inside evaluate before updateCoeffs
smoothSolver:  Solving for epsilon, Initial residual = 0.000872732, Final residual = 6.62771e-09, No Iterations 11
smoothSolver:  Solving for k, Initial residual = 0.00671573, Final residual = 9.32171e-09, No Iterations 13
ExecutionTime = 16.34 s  ClockTime = 16 s

Courant Number mean: 0.102412 max: 0.536657
Time = 0.000685

PIMPLE: iteration 1
smoothSolver:  Solving for Ux, Initial residual = 0.00195485, Final residual = 6.77828e-06, No Iterations 3
smoothSolver:  Solving for Uy, Initial residual = 0.00694421, Final residual = 6.34118e-06, No Iterations 3
Inside evaluate before updateCoeffs
smoothSolver:  Solving for e, Initial residual = 0.0414494, Final residual = 6.97266e-06, No Iterations 7
smoothSolver:  Solving for p, Initial residual = 0.0120928, Final residual = 7.29218e-09, No Iterations 10
Inside evaluate before updateCoeffs
diagonal:  Solving for rho, Initial residual = 0, Final residual = 0, No Iterations 0
time step continuity errors : sum local = 1.11227e-10, global = 7.66238e-11, cumulative = 1.56809e-09
rho max/min : 1.1921 1.00192
Inside evaluate before updateCoeffs
PIMPLE: iteration 2
smoothSolver:  Solving for Ux, Initial residual = 0.000629176, Final residual = 3.65935e-06, No Iterations 2
smoothSolver:  Solving for Uy, Initial residual = 0.000187891, Final residual = 1.53858e-06, No Iterations 2
Inside evaluate before updateCoeffs
smoothSolver:  Solving for e, Initial residual = 0.0297417, Final residual = 5.00908e-06, No Iterations 7
smoothSolver:  Solving for p, Initial residual = 0.00499711, Final residual = 6.99209e-09, No Iterations 9
Inside evaluate before updateCoeffs
diagonal:  Solving for rho, Initial residual = 0, Final residual = 0, No Iterations 0
time step continuity errors : sum local = 1.06577e-10, global = -5.44635e-11, cumulative = 1.51362e-09
rho max/min : 1.19209 1.00195
Inside evaluate before updateCoeffs
smoothSolver:  Solving for epsilon, Initial residual = 0.000869507, Final residual = 6.56525e-09, No Iterations 11
smoothSolver:  Solving for k, Initial residual = 0.00667876, Final residual = 9.21951e-09, No Iterations 13
ExecutionTime = 16.44 s  ClockTime = 16 s

Courant Number mean: 0.102413 max: 0.536215
Time = 0.00069

PIMPLE: iteration 1
smoothSolver:  Solving for Ux, Initial residual = 0.00194997, Final residual = 6.71961e-06, No Iterations 3
smoothSolver:  Solving for Uy, Initial residual = 0.0069153, Final residual = 6.25903e-06, No Iterations 3
Inside evaluate before updateCoeffs
smoothSolver:  Solving for e, Initial residual = 0.0413672, Final residual = 6.87211e-06, No Iterations 7
smoothSolver:  Solving for p, Initial residual = 0.012084, Final residual = 7.14065e-09, No Iterations 10
Inside evaluate before updateCoeffs
diagonal:  Solving for rho, Initial residual = 0, Final residual = 0, No Iterations 0
time step continuity errors : sum local = 1.08947e-10, global = 7.52322e-11, cumulative = 1.58886e-09
rho max/min : 1.19208 1.00262
Inside evaluate before updateCoeffs
PIMPLE: iteration 2
smoothSolver:  Solving for Ux, Initial residual = 0.000627185, Final residual = 3.60359e-06, No Iterations 2
smoothSolver:  Solving for Uy, Initial residual = 0.000186788, Final residual = 1.50851e-06, No Iterations 2
Inside evaluate before updateCoeffs
smoothSolver:  Solving for e, Initial residual = 0.0296333, Final residual = 4.92154e-06, No Iterations 7
smoothSolver:  Solving for p, Initial residual = 0.00499213, Final residual = 6.81623e-09, No Iterations 9
Inside evaluate before updateCoeffs
diagonal:  Solving for rho, Initial residual = 0, Final residual = 0, No Iterations 0
time step continuity errors : sum local = 1.03924e-10, global = -5.31146e-11, cumulative = 1.53574e-09
rho max/min : 1.19208 1.00265
Inside evaluate before updateCoeffs
smoothSolver:  Solving for epsilon, Initial residual = 0.000866058, Final residual = 6.50403e-09, No Iterations 11
smoothSolver:  Solving for k, Initial residual = 0.00664003, Final residual = 9.11863e-09, No Iterations 13
ExecutionTime = 16.53 s  ClockTime = 16 s

Courant Number mean: 0.102414 max: 0.535773
Time = 0.000695

PIMPLE: iteration 1
smoothSolver:  Solving for Ux, Initial residual = 0.00194509, Final residual = 6.64942e-06, No Iterations 3
smoothSolver:  Solving for Uy, Initial residual = 0.00688591, Final residual = 6.17663e-06, No Iterations 3
Inside evaluate before updateCoeffs
smoothSolver:  Solving for e, Initial residual = 0.0412485, Final residual = 6.75743e-06, No Iterations 7
smoothSolver:  Solving for p, Initial residual = 0.0120707, Final residual = 6.98703e-09, No Iterations 10
Inside evaluate before updateCoeffs
diagonal:  Solving for rho, Initial residual = 0, Final residual = 0, No Iterations 0
time step continuity errors : sum local = 1.06632e-10, global = 7.37851e-11, cumulative = 1.60953e-09
rho max/min : 1.19207 1.00331
Inside evaluate before updateCoeffs
PIMPLE: iteration 2
smoothSolver:  Solving for Ux, Initial residual = 0.000625214, Final residual = 3.55319e-06, No Iterations 2
smoothSolver:  Solving for Uy, Initial residual = 0.000183838, Final residual = 1.48257e-06, No Iterations 2
Inside evaluate before updateCoeffs
smoothSolver:  Solving for e, Initial residual = 0.0294585, Final residual = 4.83069e-06, No Iterations 7
smoothSolver:  Solving for p, Initial residual = 0.00499006, Final residual = 6.65339e-09, No Iterations 9
Inside evaluate before updateCoeffs
diagonal:  Solving for rho, Initial residual = 0, Final residual = 0, No Iterations 0
time step continuity errors : sum local = 1.01468e-10, global = -5.19259e-11, cumulative = 1.5576e-09
rho max/min : 1.19207 1.00334
Inside evaluate before updateCoeffs
smoothSolver:  Solving for epsilon, Initial residual = 0.000862929, Final residual = 6.44429e-09, No Iterations 11
smoothSolver:  Solving for k, Initial residual = 0.00660336, Final residual = 9.01905e-09, No Iterations 13
ExecutionTime = 16.65 s  ClockTime = 16 s

Courant Number mean: 0.102414 max: 0.535328
Time = 0.0007

PIMPLE: iteration 1
smoothSolver:  Solving for Ux, Initial residual = 0.00194048, Final residual = 6.59047e-06, No Iterations 3
smoothSolver:  Solving for Uy, Initial residual = 0.00685342, Final residual = 6.09445e-06, No Iterations 3
Inside evaluate before updateCoeffs
smoothSolver:  Solving for e, Initial residual = 0.0409966, Final residual = 6.6185e-06, No Iterations 7
smoothSolver:  Solving for p, Initial residual = 0.0120585, Final residual = 6.83129e-09, No Iterations 10
Inside evaluate before updateCoeffs
diagonal:  Solving for rho, Initial residual = 0, Final residual = 0, No Iterations 0
time step continuity errors : sum local = 1.04282e-10, global = 7.22776e-11, cumulative = 1.62988e-09
rho max/min : 1.19206 1.004
Inside evaluate before updateCoeffs
PIMPLE: iteration 2
smoothSolver:  Solving for Ux, Initial residual = 0.000623055, Final residual = 3.49797e-06, No Iterations 2
smoothSolver:  Solving for Uy, Initial residual = 0.000179919, Final residual = 1.45284e-06, No Iterations 2
Inside evaluate before updateCoeffs
smoothSolver:  Solving for e, Initial residual = 0.0292599, Final residual = 4.72726e-06, No Iterations 7
smoothSolver:  Solving for p, Initial residual = 0.00498361, Final residual = 6.49884e-09, No Iterations 9
Inside evaluate before updateCoeffs
diagonal:  Solving for rho, Initial residual = 0, Final residual = 0, No Iterations 0
time step continuity errors : sum local = 9.91343e-11, global = -5.04803e-11, cumulative = 1.5794e-09
rho max/min : 1.19206 1.00403
Inside evaluate before updateCoeffs
smoothSolver:  Solving for epsilon, Initial residual = 0.000859884, Final residual = 6.3857e-09, No Iterations 11
smoothSolver:  Solving for k, Initial residual = 0.00656686, Final residual = 8.9208e-09, No Iterations 13
ExecutionTime = 16.89 s  ClockTime = 17 s

Courant Number mean: 0.102415 max: 0.534885
Time = 0.000705

PIMPLE: iteration 1
smoothSolver:  Solving for Ux, Initial residual = 0.00193607, Final residual = 6.52639e-06, No Iterations 3
smoothSolver:  Solving for Uy, Initial residual = 0.00682082, Final residual = 6.01163e-06, No Iterations 3
Inside evaluate before updateCoeffs
smoothSolver:  Solving for e, Initial residual = 0.0407272, Final residual = 6.48963e-06, No Iterations 7
smoothSolver:  Solving for p, Initial residual = 0.0120439, Final residual = 6.68265e-09, No Iterations 10
Inside evaluate before updateCoeffs
diagonal:  Solving for rho, Initial residual = 0, Final residual = 0, No Iterations 0
time step continuity errors : sum local = 1.02038e-10, global = 7.05875e-11, cumulative = 1.64999e-09
rho max/min : 1.19205 1.0046
Inside evaluate before updateCoeffs
PIMPLE: iteration 2
smoothSolver:  Solving for Ux, Initial residual = 0.000620928, Final residual = 3.44204e-06, No Iterations 2
smoothSolver:  Solving for Uy, Initial residual = 0.000177128, Final residual = 1.42431e-06, No Iterations 2
Inside evaluate before updateCoeffs
smoothSolver:  Solving for e, Initial residual = 0.0290586, Final residual = 4.63877e-06, No Iterations 7
smoothSolver:  Solving for p, Initial residual = 0.00497828, Final residual = 6.31371e-09, No Iterations 9
Inside evaluate before updateCoeffs
diagonal:  Solving for rho, Initial residual = 0, Final residual = 0, No Iterations 0
time step continuity errors : sum local = 9.63328e-11, global = -4.88555e-11, cumulative = 1.60113e-09
rho max/min : 1.19204 1.00463
Inside evaluate before updateCoeffs
smoothSolver:  Solving for epsilon, Initial residual = 0.000857179, Final residual = 6.32763e-09, No Iterations 11
smoothSolver:  Solving for k, Initial residual = 0.006533, Final residual = 8.82379e-09, No Iterations 13
ExecutionTime = 16.99 s  ClockTime = 17 s

Courant Number mean: 0.102415 max: 0.534458
Time = 0.00071

PIMPLE: iteration 1
smoothSolver:  Solving for Ux, Initial residual = 0.00193134, Final residual = 6.46506e-06, No Iterations 3
smoothSolver:  Solving for Uy, Initial residual = 0.00678652, Final residual = 5.92963e-06, No Iterations 3
Inside evaluate before updateCoeffs
smoothSolver:  Solving for e, Initial residual = 0.0404624, Final residual = 6.34031e-06, No Iterations 7
smoothSolver:  Solving for p, Initial residual = 0.0120308, Final residual = 6.52558e-09, No Iterations 10
Inside evaluate before updateCoeffs
diagonal:  Solving for rho, Initial residual = 0, Final residual = 0, No Iterations 0
time step continuity errors : sum local = 9.96649e-11, global = 6.90152e-11, cumulative = 1.67015e-09
rho max/min : 1.19204 1.00521
Inside evaluate before updateCoeffs
PIMPLE: iteration 2
smoothSolver:  Solving for Ux, Initial residual = 0.000618589, Final residual = 3.39353e-06, No Iterations 2
smoothSolver:  Solving for Uy, Initial residual = 0.000175261, Final residual = 1.39934e-06, No Iterations 2
Inside evaluate before updateCoeffs
smoothSolver:  Solving for e, Initial residual = 0.0288679, Final residual = 9.88258e-06, No Iterations 6
smoothSolver:  Solving for p, Initial residual = 0.00497205, Final residual = 6.12263e-09, No Iterations 9
Inside evaluate before updateCoeffs
diagonal:  Solving for rho, Initial residual = 0, Final residual = 0, No Iterations 0
time step continuity errors : sum local = 9.34403e-11, global = -4.7098e-11, cumulative = 1.62305e-09
rho max/min : 1.19203 1.00524
Inside evaluate before updateCoeffs
smoothSolver:  Solving for epsilon, Initial residual = 0.000854565, Final residual = 6.26983e-09, No Iterations 11
smoothSolver:  Solving for k, Initial residual = 0.00649988, Final residual = 8.72776e-09, No Iterations 13
ExecutionTime = 17.08 s  ClockTime = 17 s

Courant Number mean: 0.102416 max: 0.534048
Time = 0.000715

PIMPLE: iteration 1
smoothSolver:  Solving for Ux, Initial residual = 0.00192613, Final residual = 6.40769e-06, No Iterations 3
smoothSolver:  Solving for Uy, Initial residual = 0.0067568, Final residual = 5.85136e-06, No Iterations 3
Inside evaluate before updateCoeffs
