/*---------------------------------------------------------------------------*\
| =========                 |                                                 |
| \\      /  F ield         | OpenFOAM: The Open Source CFD Toolbox           |
|  \\    /   O peration     | Version:  v2006                                 |
|   \\  /    A nd           | Website:  www.openfoam.com                      |
|    \\/     M anipulation  |                                                 |
\*---------------------------------------------------------------------------*/
Build  : _b45f8f6f58-20200629 OPENFOAM=2006
Arch   : "LSB;label=32;scalar=64"
Exec   : /opt/OpenFOAM/OpenFOAM-v2006/platforms/linux64GccDPInt32Opt/bin/reconstructPar
Date   : Feb 18 2022
Time   : 08:57:01
Host   : node843.pi.sjtu.edu.cn
PID    : 658032
I/O    : collated (maxThreadFileBufferSize 0)
         Threading not activated since maxThreadFileBufferSize = 0.
         Writing may run slowly for large file sizes.
Case   : /dssg/home/acct-medgm/medgm/05-NSCBC-Z64/Workspace/run/sineWaveDampingPimpleFoam3Dduct-finer
nProcs : 1
trapFpe: Floating point exception trapping enabled (FOAM_SIGFPE).
fileModificationChecking : Monitoring run-time modified files using timeStamp (fileModificationSkew 5, maxFileModificationPolls 20)
allowSystemOperations : Allowing user-supplied system call operations

// * * * * * * * * * * * * * * * * * * * * * * * * * * * * * * * * * * * * * //
Create time



Reconstructing fields for mesh region0

Time = 0.0002

Reconstructing FV fields

    Reconstructing volScalarFields

        T
        mag(U)
        p
        p_0
        rho
        rho_0

    Reconstructing volVectorFields

        U
Using dynamicCode for patch inlet on field U at line 25569 in "/dssg/home/acct-medgm/medgm/05-NSCBC-Z64/Workspace/run/sineWaveDampingPimpleFoam3Dduct-finer/processors64/0.0002/U.boundaryField.inlet"
Using dynamicCode for patch inlet on field U at line 25459 in "/dssg/home/acct-medgm/medgm/05-NSCBC-Z64/Workspace/run/sineWaveDampingPimpleFoam3Dduct-finer/processors64/0.0002/U.boundaryField.inlet"
Using dynamicCode for patch inlet on field U at line 25690 in "/dssg/home/acct-medgm/medgm/05-NSCBC-Z64/Workspace/run/sineWaveDampingPimpleFoam3Dduct-finer/processors64/0.0002/U.boundaryField.inlet"
Using dynamicCode for patch inlet on field U at line 25317 in "/dssg/home/acct-medgm/medgm/05-NSCBC-Z64/Workspace/run/sineWaveDampingPimpleFoam3Dduct-finer/processors64/0.0002/U.boundaryField.inlet"
Using dynamicCode for patch inlet on field U at line 25313 in "/dssg/home/acct-medgm/medgm/05-NSCBC-Z64/Workspace/run/sineWaveDampingPimpleFoam3Dduct-finer/processors64/0.0002/U.boundaryField.inlet"
Using dynamicCode for patch inlet on field U at line 25313 in "/dssg/home/acct-medgm/medgm/05-NSCBC-Z64/Workspace/run/sineWaveDampingPimpleFoam3Dduct-finer/processors64/0.0002/U.boundaryField.inlet"
Using dynamicCode for patch inlet on field U at line 25404 in "/dssg/home/acct-medgm/medgm/05-NSCBC-Z64/Workspace/run/sineWaveDampingPimpleFoam3Dduct-finer/processors64/0.0002/U.boundaryField.inlet"
Using dynamicCode for patch inlet on field U at line 25503 in "/dssg/home/acct-medgm/medgm/05-NSCBC-Z64/Workspace/run/sineWaveDampingPimpleFoam3Dduct-finer/processors64/0.0002/U.boundaryField.inlet"
Using dynamicCode for patch inlet on field U at line 25780 in "/dssg/home/acct-medgm/medgm/05-NSCBC-Z64/Workspace/run/sineWaveDampingPimpleFoam3Dduct-finer/processors64/0.0002/U.boundaryField.inlet"
Using dynamicCode for patch inlet on field U at line 25310 in "/dssg/home/acct-medgm/medgm/05-NSCBC-Z64/Workspace/run/sineWaveDampingPimpleFoam3Dduct-finer/processors64/0.0002/U.boundaryField.inlet"
Using dynamicCode for patch inlet on field U at line 25717 in "/dssg/home/acct-medgm/medgm/05-NSCBC-Z64/Workspace/run/sineWaveDampingPimpleFoam3Dduct-finer/processors64/0.0002/U.boundaryField.inlet"
Using dynamicCode for patch inlet on field U at line 25780 in "/dssg/home/acct-medgm/medgm/05-NSCBC-Z64/Workspace/run/sineWaveDampingPimpleFoam3Dduct-finer/processors64/0.0002/U.boundaryField.inlet"
Using dynamicCode for patch inlet on field U at line 25458 in "/dssg/home/acct-medgm/medgm/05-NSCBC-Z64/Workspace/run/sineWaveDampingPimpleFoam3Dduct-finer/processors64/0.0002/U.boundaryField.inlet"
Using dynamicCode for patch inlet on field U at line 25647 in "/dssg/home/acct-medgm/medgm/05-NSCBC-Z64/Workspace/run/sineWaveDampingPimpleFoam3Dduct-finer/processors64/0.0002/U.boundaryField.inlet"
Using dynamicCode for patch inlet on field U at line 25397 in "/dssg/home/acct-medgm/medgm/05-NSCBC-Z64/Workspace/run/sineWaveDampingPimpleFoam3Dduct-finer/processors64/0.0002/U.boundaryField.inlet"
Using dynamicCode for patch inlet on field U at line 25352 in "/dssg/home/acct-medgm/medgm/05-NSCBC-Z64/Workspace/run/sineWaveDampingPimpleFoam3Dduct-finer/processors64/0.0002/U.boundaryField.inlet"
Using dynamicCode for patch inlet on field U at line 25270 in "/dssg/home/acct-medgm/medgm/05-NSCBC-Z64/Workspace/run/sineWaveDampingPimpleFoam3Dduct-finer/processors64/0.0002/U.boundaryField.inlet"
Using dynamicCode for patch inlet on field U at line 25458 in "/dssg/home/acct-medgm/medgm/05-NSCBC-Z64/Workspace/run/sineWaveDampingPimpleFoam3Dduct-finer/processors64/0.0002/U.boundaryField.inlet"
Using dynamicCode for patch inlet on field U at line 25440 in "/dssg/home/acct-medgm/medgm/05-NSCBC-Z64/Workspace/run/sineWaveDampingPimpleFoam3Dduct-finer/processors64/0.0002/U.boundaryField.inlet"
Using dynamicCode for patch inlet on field U at line 25427 in "/dssg/home/acct-medgm/medgm/05-NSCBC-Z64/Workspace/run/sineWaveDampingPimpleFoam3Dduct-finer/processors64/0.0002/U.boundaryField.inlet"
Using dynamicCode for patch inlet on field U at line 25395 in "/dssg/home/acct-medgm/medgm/05-NSCBC-Z64/Workspace/run/sineWaveDampingPimpleFoam3Dduct-finer/processors64/0.0002/U.boundaryField.inlet"
Using dynamicCode for patch inlet on field U at line 25371 in "/dssg/home/acct-medgm/medgm/05-NSCBC-Z64/Workspace/run/sineWaveDampingPimpleFoam3Dduct-finer/processors64/0.0002/U.boundaryField.inlet"
Using dynamicCode for patch inlet on field U at line 25270 in "/dssg/home/acct-medgm/medgm/05-NSCBC-Z64/Workspace/run/sineWaveDampingPimpleFoam3Dduct-finer/processors64/0.0002/U.boundaryField.inlet"
Using dynamicCode for patch inlet on field U at line 25403 in "/dssg/home/acct-medgm/medgm/05-NSCBC-Z64/Workspace/run/sineWaveDampingPimpleFoam3Dduct-finer/processors64/0.0002/U.boundaryField.inlet"
Using dynamicCode for patch inlet on field U at line 25270 in "/dssg/home/acct-medgm/medgm/05-NSCBC-Z64/Workspace/run/sineWaveDampingPimpleFoam3Dduct-finer/processors64/0.0002/U.boundaryField.inlet"
Using dynamicCode for patch inlet on field U at line 25270 in "/dssg/home/acct-medgm/medgm/05-NSCBC-Z64/Workspace/run/sineWaveDampingPimpleFoam3Dduct-finer/processors64/0.0002/U.boundaryField.inlet"
Using dynamicCode for patch inlet on field U at line 25558 in "/dssg/home/acct-medgm/medgm/05-NSCBC-Z64/Workspace/run/sineWaveDampingPimpleFoam3Dduct-finer/processors64/0.0002/U.boundaryField.inlet"
Using dynamicCode for patch inlet on field U at line 25555 in "/dssg/home/acct-medgm/medgm/05-NSCBC-Z64/Workspace/run/sineWaveDampingPimpleFoam3Dduct-finer/processors64/0.0002/U.boundaryField.inlet"
Using dynamicCode for patch inlet on field U at line 25669 in "/dssg/home/acct-medgm/medgm/05-NSCBC-Z64/Workspace/run/sineWaveDampingPimpleFoam3Dduct-finer/processors64/0.0002/U.boundaryField.inlet"
Using dynamicCode for patch inlet on field U at line 25311 in "/dssg/home/acct-medgm/medgm/05-NSCBC-Z64/Workspace/run/sineWaveDampingPimpleFoam3Dduct-finer/processors64/0.0002/U.boundaryField.inlet"
Using dynamicCode for patch inlet on field U at line 25313 in "/dssg/home/acct-medgm/medgm/05-NSCBC-Z64/Workspace/run/sineWaveDampingPimpleFoam3Dduct-finer/processors64/0.0002/U.boundaryField.inlet"
Using dynamicCode for patch inlet on field U at line 25644 in "/dssg/home/acct-medgm/medgm/05-NSCBC-Z64/Workspace/run/sineWaveDampingPimpleFoam3Dduct-finer/processors64/0.0002/U.boundaryField.inlet"
Using dynamicCode for patch inlet on field U at line 25736 in "/dssg/home/acct-medgm/medgm/05-NSCBC-Z64/Workspace/run/sineWaveDampingPimpleFoam3Dduct-finer/processors64/0.0002/U.boundaryField.inlet"
Using dynamicCode for patch inlet on field U at line 25580 in "/dssg/home/acct-medgm/medgm/05-NSCBC-Z64/Workspace/run/sineWaveDampingPimpleFoam3Dduct-finer/processors64/0.0002/U.boundaryField.inlet"
Using dynamicCode for patch inlet on field U at line 25698 in "/dssg/home/acct-medgm/medgm/05-NSCBC-Z64/Workspace/run/sineWaveDampingPimpleFoam3Dduct-finer/processors64/0.0002/U.boundaryField.inlet"
Using dynamicCode for patch inlet on field U at line 25771 in "/dssg/home/acct-medgm/medgm/05-NSCBC-Z64/Workspace/run/sineWaveDampingPimpleFoam3Dduct-finer/processors64/0.0002/U.boundaryField.inlet"
Using dynamicCode for patch inlet on field U at line 25270 in "/dssg/home/acct-medgm/medgm/05-NSCBC-Z64/Workspace/run/sineWaveDampingPimpleFoam3Dduct-finer/processors64/0.0002/U.boundaryField.inlet"
Using dynamicCode for patch inlet on field U at line 25279 in "/dssg/home/acct-medgm/medgm/05-NSCBC-Z64/Workspace/run/sineWaveDampingPimpleFoam3Dduct-finer/processors64/0.0002/U.boundaryField.inlet"
Using dynamicCode for patch inlet on field U at line 25354 in "/dssg/home/acct-medgm/medgm/05-NSCBC-Z64/Workspace/run/sineWaveDampingPimpleFoam3Dduct-finer/processors64/0.0002/U.boundaryField.inlet"
Using dynamicCode for patch inlet on field U at line 25452 in "/dssg/home/acct-medgm/medgm/05-NSCBC-Z64/Workspace/run/sineWaveDampingPimpleFoam3Dduct-finer/processors64/0.0002/U.boundaryField.inlet"
Using dynamicCode for patch inlet on field U at line 25779 in "/dssg/home/acct-medgm/medgm/05-NSCBC-Z64/Workspace/run/sineWaveDampingPimpleFoam3Dduct-finer/processors64/0.0002/U.boundaryField.inlet"
Using dynamicCode for patch inlet on field U at line 25678 in "/dssg/home/acct-medgm/medgm/05-NSCBC-Z64/Workspace/run/sineWaveDampingPimpleFoam3Dduct-finer/processors64/0.0002/U.boundaryField.inlet"
Using dynamicCode for patch inlet on field U at line 25732 in "/dssg/home/acct-medgm/medgm/05-NSCBC-Z64/Workspace/run/sineWaveDampingPimpleFoam3Dduct-finer/processors64/0.0002/U.boundaryField.inlet"
Using dynamicCode for patch inlet on field U at line 25597 in "/dssg/home/acct-medgm/medgm/05-NSCBC-Z64/Workspace/run/sineWaveDampingPimpleFoam3Dduct-finer/processors64/0.0002/U.boundaryField.inlet"
Using dynamicCode for patch inlet on field U at line 25780 in "/dssg/home/acct-medgm/medgm/05-NSCBC-Z64/Workspace/run/sineWaveDampingPimpleFoam3Dduct-finer/processors64/0.0002/U.boundaryField.inlet"
Using dynamicCode for patch inlet on field U at line 25716 in "/dssg/home/acct-medgm/medgm/05-NSCBC-Z64/Workspace/run/sineWaveDampingPimpleFoam3Dduct-finer/processors64/0.0002/U.boundaryField.inlet"
Using dynamicCode for patch inlet on field U at line 25777 in "/dssg/home/acct-medgm/medgm/05-NSCBC-Z64/Workspace/run/sineWaveDampingPimpleFoam3Dduct-finer/processors64/0.0002/U.boundaryField.inlet"
Using dynamicCode for patch inlet on field U at line 25762 in "/dssg/home/acct-medgm/medgm/05-NSCBC-Z64/Workspace/run/sineWaveDampingPimpleFoam3Dduct-finer/processors64/0.0002/U.boundaryField.inlet"
Using dynamicCode for patch inlet on field U at line 25772 in "/dssg/home/acct-medgm/medgm/05-NSCBC-Z64/Workspace/run/sineWaveDampingPimpleFoam3Dduct-finer/processors64/0.0002/U.boundaryField.inlet"
Using dynamicCode for patch inlet on field U at line 25630 in "/dssg/home/acct-medgm/medgm/05-NSCBC-Z64/Workspace/run/sineWaveDampingPimpleFoam3Dduct-finer/processors64/0.0002/U.boundaryField.inlet"
Using dynamicCode for patch inlet on field U at line 25270 in "/dssg/home/acct-medgm/medgm/05-NSCBC-Z64/Workspace/run/sineWaveDampingPimpleFoam3Dduct-finer/processors64/0.0002/U.boundaryField.inlet"
Using dynamicCode for patch inlet on field U at line 25730 in "/dssg/home/acct-medgm/medgm/05-NSCBC-Z64/Workspace/run/sineWaveDampingPimpleFoam3Dduct-finer/processors64/0.0002/U.boundaryField.inlet"
Using dynamicCode for patch inlet on field U at line 25632 in "/dssg/home/acct-medgm/medgm/05-NSCBC-Z64/Workspace/run/sineWaveDampingPimpleFoam3Dduct-finer/processors64/0.0002/U.boundaryField.inlet"
Using dynamicCode for patch inlet on field U at line 25766 in "/dssg/home/acct-medgm/medgm/05-NSCBC-Z64/Workspace/run/sineWaveDampingPimpleFoam3Dduct-finer/processors64/0.0002/U.boundaryField.inlet"
Using dynamicCode for patch inlet on field U at line 25627 in "/dssg/home/acct-medgm/medgm/05-NSCBC-Z64/Workspace/run/sineWaveDampingPimpleFoam3Dduct-finer/processors64/0.0002/U.boundaryField.inlet"
Using dynamicCode for patch inlet on field U at line 25754 in "/dssg/home/acct-medgm/medgm/05-NSCBC-Z64/Workspace/run/sineWaveDampingPimpleFoam3Dduct-finer/processors64/0.0002/U.boundaryField.inlet"
Using dynamicCode for patch inlet on field U at line 25823 in "/dssg/home/acct-medgm/medgm/05-NSCBC-Z64/Workspace/run/sineWaveDampingPimpleFoam3Dduct-finer/processors64/0.0002/U.boundaryField.inlet"
Using dynamicCode for patch inlet on field U at line 25889 in "/dssg/home/acct-medgm/medgm/05-NSCBC-Z64/Workspace/run/sineWaveDampingPimpleFoam3Dduct-finer/processors64/0.0002/U.boundaryField.inlet"
Using dynamicCode for patch inlet on field U at line 26131 in "/dssg/home/acct-medgm/medgm/05-NSCBC-Z64/Workspace/run/sineWaveDampingPimpleFoam3Dduct-finer/processors64/0.0002/U.boundaryField.inlet"
Using dynamicCode for patch inlet on field U at line 25751 in "/dssg/home/acct-medgm/medgm/05-NSCBC-Z64/Workspace/run/sineWaveDampingPimpleFoam3Dduct-finer/processors64/0.0002/U.boundaryField.inlet"
Using dynamicCode for patch inlet on field U at line 25722 in "/dssg/home/acct-medgm/medgm/05-NSCBC-Z64/Workspace/run/sineWaveDampingPimpleFoam3Dduct-finer/processors64/0.0002/U.boundaryField.inlet"
Using dynamicCode for patch inlet on field U at line 25672 in "/dssg/home/acct-medgm/medgm/05-NSCBC-Z64/Workspace/run/sineWaveDampingPimpleFoam3Dduct-finer/processors64/0.0002/U.boundaryField.inlet"
Using dynamicCode for patch inlet on field U at line 25677 in "/dssg/home/acct-medgm/medgm/05-NSCBC-Z64/Workspace/run/sineWaveDampingPimpleFoam3Dduct-finer/processors64/0.0002/U.boundaryField.inlet"
Using dynamicCode for patch inlet on field U at line 25313 in "/dssg/home/acct-medgm/medgm/05-NSCBC-Z64/Workspace/run/sineWaveDampingPimpleFoam3Dduct-finer/processors64/0.0002/U.boundaryField.inlet"
        U_0

    Reconstructing surfaceScalarFields

        phi
        phi_0

Reconstructing point fields

No point fields

No lagrangian fields

No FA fields

Time = 0.0004

Reconstructing FV fields

    Reconstructing volScalarFields

        T
        mag(U)
        p
        p_0
        rho
        rho_0

    Reconstructing volVectorFields

        U
        U_0

    Reconstructing surfaceScalarFields

        phi
        phi_0

Reconstructing point fields

No point fields

No lagrangian fields

No FA fields

Time = 0.0006

Reconstructing FV fields

    Reconstructing volScalarFields

        T
        mag(U)
        p
        p_0
        rho
        rho_0

    Reconstructing volVectorFields

        U
        U_0

    Reconstructing surfaceScalarFields

        phi
        phi_0

Reconstructing point fields

No point fields

No lagrangian fields

No FA fields

Time = 0.0008

Reconstructing FV fields

    Reconstructing volScalarFields

        T
        mag(U)
        p
        p_0
        rho
        rho_0

    Reconstructing volVectorFields

        U
        U_0

    Reconstructing surfaceScalarFields

        phi
        phi_0

Reconstructing point fields

No point fields

No lagrangian fields

No FA fields

Time = 0.001

Reconstructing FV fields

    Reconstructing volScalarFields

        T
        mag(U)
        p
        p_0
        rho
        rho_0

    Reconstructing volVectorFields

        U
        U_0

    Reconstructing surfaceScalarFields

        phi
        phi_0

Reconstructing point fields

No point fields

No lagrangian fields

No FA fields

Time = 0.0012

Reconstructing FV fields

    Reconstructing volScalarFields

        T
        mag(U)
        p
        p_0
        rho
        rho_0

    Reconstructing volVectorFields

        U
        U_0

    Reconstructing surfaceScalarFields

        phi
        phi_0

Reconstructing point fields

No point fields

No lagrangian fields

No FA fields

Time = 0.0014

Reconstructing FV fields

    Reconstructing volScalarFields

        T
        mag(U)
        p
        p_0
        rho
        rho_0

    Reconstructing volVectorFields

        U
        U_0

    Reconstructing surfaceScalarFields

        phi
        phi_0

Reconstructing point fields

No point fields

No lagrangian fields

No FA fields

Time = 0.0016

Reconstructing FV fields

    Reconstructing volScalarFields

        T
        mag(U)
        p
        p_0
        rho
        rho_0

    Reconstructing volVectorFields

        U
        U_0

    Reconstructing surfaceScalarFields

        phi
        phi_0

Reconstructing point fields

No point fields

No lagrangian fields

No FA fields

Time = 0.0018

Reconstructing FV fields

    Reconstructing volScalarFields

        T
        mag(U)
        p
        p_0
        rho
        rho_0

    Reconstructing volVectorFields

        U
        U_0

    Reconstructing surfaceScalarFields

        phi
        phi_0

Reconstructing point fields

No point fields

No lagrangian fields

No FA fields

Time = 0.002

Reconstructing FV fields

    Reconstructing volScalarFields

        T
        mag(U)
        p
        p_0
        rho
        rho_0

    Reconstructing volVectorFields

        U
        U_0

    Reconstructing surfaceScalarFields

        phi
        phi_0

Reconstructing point fields

No point fields

No lagrangian fields

No FA fields

Time = 0.0022

Reconstructing FV fields

    Reconstructing volScalarFields

        T
        mag(U)
        p
        p_0
        rho
        rho_0

    Reconstructing volVectorFields

        U
        U_0

    Reconstructing surfaceScalarFields

        phi
        phi_0

Reconstructing point fields

No point fields

No lagrangian fields

No FA fields

Time = 0.0024

Reconstructing FV fields

    Reconstructing volScalarFields

        T
        mag(U)
        p
        p_0
        rho
        rho_0

    Reconstructing volVectorFields

        U
        U_0

    Reconstructing surfaceScalarFields

        phi
        phi_0

Reconstructing point fields

No point fields

No lagrangian fields

No FA fields

Time = 0.0026

Reconstructing FV fields

    Reconstructing volScalarFields

        T
        mag(U)
        p
        p_0
        rho
        rho_0

    Reconstructing volVectorFields

        U
        U_0

    Reconstructing surfaceScalarFields

        phi
        phi_0

Reconstructing point fields

No point fields

No lagrangian fields

No FA fields

Time = 0.0028

Reconstructing FV fields

    Reconstructing volScalarFields

        T
        mag(U)
        p
        p_0
        rho
        rho_0

    Reconstructing volVectorFields

        U
        U_0

    Reconstructing surfaceScalarFields

        phi
        phi_0

Reconstructing point fields

No point fields

No lagrangian fields

No FA fields

Time = 0.003

Reconstructing FV fields

    Reconstructing volScalarFields

        T
        mag(U)
        p
        p_0
        rho
        rho_0

    Reconstructing volVectorFields

        U
        U_0

    Reconstructing surfaceScalarFields

        phi
        phi_0

Reconstructing point fields

No point fields

No lagrangian fields

No FA fields

Time = 0.0032

Reconstructing FV fields

    Reconstructing volScalarFields

        T
        mag(U)
        p
        p_0
        rho
        rho_0

    Reconstructing volVectorFields

        U
        U_0

    Reconstructing surfaceScalarFields

        phi
        phi_0

Reconstructing point fields

No point fields

No lagrangian fields

No FA fields

Time = 0.0034

Reconstructing FV fields

    Reconstructing volScalarFields

        T
        mag(U)
        p
        p_0
        rho
        rho_0

    Reconstructing volVectorFields

        U
        U_0

    Reconstructing surfaceScalarFields

        phi
        phi_0

Reconstructing point fields

No point fields

No lagrangian fields

No FA fields

Time = 0.0036

Reconstructing FV fields

    Reconstructing volScalarFields

        T
        mag(U)
        p
        p_0
        rho
        rho_0

    Reconstructing volVectorFields

        U
        U_0

    Reconstructing surfaceScalarFields

        phi
        phi_0

Reconstructing point fields

No point fields

No lagrangian fields

No FA fields

Time = 0.0038

Reconstructing FV fields

    Reconstructing volScalarFields

        T
        mag(U)
        p
        p_0
        rho
        rho_0

    Reconstructing volVectorFields

        U
        U_0

    Reconstructing surfaceScalarFields

        phi
        phi_0

Reconstructing point fields

No point fields

No lagrangian fields

No FA fields

Time = 0.004

Reconstructing FV fields

    Reconstructing volScalarFields

        T
        mag(U)
        p
        p_0
        rho
        rho_0

    Reconstructing volVectorFields

        U
        U_0

    Reconstructing surfaceScalarFields

        phi
        phi_0

Reconstructing point fields

No point fields

No lagrangian fields

No FA fields

Time = 0.0042

Reconstructing FV fields

    Reconstructing volScalarFields

        T
        mag(U)
        p
        p_0
        rho
        rho_0

    Reconstructing volVectorFields

        U
        U_0

    Reconstructing surfaceScalarFields

        phi
        phi_0

Reconstructing point fields

No point fields

No lagrangian fields

No FA fields

Time = 0.0044

Reconstructing FV fields

    Reconstructing volScalarFields

        T
        mag(U)
        p
        p_0
        rho
        rho_0

    Reconstructing volVectorFields

        U
        U_0

    Reconstructing surfaceScalarFields

        phi
        phi_0

Reconstructing point fields

No point fields

No lagrangian fields

No FA fields

Time = 0.0046

Reconstructing FV fields

    Reconstructing volScalarFields

        T
        mag(U)
        p
        p_0
        rho
        rho_0

    Reconstructing volVectorFields

        U
        U_0

    Reconstructing surfaceScalarFields

        phi
        phi_0

Reconstructing point fields

No point fields

No lagrangian fields

No FA fields

Time = 0.0048

Reconstructing FV fields

    Reconstructing volScalarFields

        T
        mag(U)
        p
        p_0
        rho
        rho_0

    Reconstructing volVectorFields

        U
        U_0

    Reconstructing surfaceScalarFields

        phi
        phi_0

Reconstructing point fields

No point fields

No lagrangian fields

No FA fields

Time = 0.005

Reconstructing FV fields

    Reconstructing volScalarFields

        T
        mag(U)
        p
        p_0
        rho
        rho_0

    Reconstructing volVectorFields

        U
        U_0

    Reconstructing surfaceScalarFields

        phi
        phi_0

Reconstructing point fields

No point fields

No lagrangian fields

No FA fields

Time = 0.0052

Reconstructing FV fields

    Reconstructing volScalarFields

        T
        mag(U)
        p
        p_0
        rho
        rho_0

    Reconstructing volVectorFields

        U
        U_0

    Reconstructing surfaceScalarFields

        phi
        phi_0

Reconstructing point fields

No point fields

No lagrangian fields

No FA fields

Time = 0.0054

Reconstructing FV fields

    Reconstructing volScalarFields

        T
        mag(U)
        p
        p_0
        rho
        rho_0

    Reconstructing volVectorFields

        U
        U_0

    Reconstructing surfaceScalarFields

        phi
        phi_0

Reconstructing point fields

No point fields

No lagrangian fields

No FA fields

Time = 0.0056

Reconstructing FV fields

    Reconstructing volScalarFields

        T
        mag(U)
        p
        p_0
        rho
        rho_0

    Reconstructing volVectorFields

        U
        U_0

    Reconstructing surfaceScalarFields

        phi
        phi_0

Reconstructing point fields

No point fields

No lagrangian fields

No FA fields

Time = 0.0058

Reconstructing FV fields

    Reconstructing volScalarFields

        T
        mag(U)
        p
        p_0
        rho
        rho_0

    Reconstructing volVectorFields

        U
        U_0

    Reconstructing surfaceScalarFields

        phi
        phi_0

Reconstructing point fields

No point fields

No lagrangian fields

No FA fields

Time = 0.006

Reconstructing FV fields

    Reconstructing volScalarFields

        T
        mag(U)
        p
        p_0
        rho
        rho_0

    Reconstructing volVectorFields

        U
        U_0

    Reconstructing surfaceScalarFields

        phi
        phi_0

Reconstructing point fields

No point fields

No lagrangian fields

No FA fields

Time = 0.0062

Reconstructing FV fields

    Reconstructing volScalarFields

        T
        mag(U)
        p
        p_0
        rho
        rho_0

    Reconstructing volVectorFields

        U
        U_0

    Reconstructing surfaceScalarFields

        phi
        phi_0

Reconstructing point fields

No point fields

No lagrangian fields

No FA fields

Time = 0.0064

Reconstructing FV fields

    Reconstructing volScalarFields

        T
        mag(U)
        p
        p_0
        rho
        rho_0

    Reconstructing volVectorFields

        U
        U_0

    Reconstructing surfaceScalarFields

        phi
        phi_0

Reconstructing point fields

No point fields

No lagrangian fields

No FA fields

Time = 0.0066

Reconstructing FV fields

    Reconstructing volScalarFields

        T
        mag(U)
        p
        p_0
        rho
        rho_0

    Reconstructing volVectorFields

        U
        U_0

    Reconstructing surfaceScalarFields

        phi
        phi_0

Reconstructing point fields

No point fields

No lagrangian fields

No FA fields

Time = 0.0068

Reconstructing FV fields

    Reconstructing volScalarFields

        T
        mag(U)
        p
        p_0
        rho
        rho_0

    Reconstructing volVectorFields

        U
        U_0

    Reconstructing surfaceScalarFields

        phi
        phi_0

Reconstructing point fields

No point fields

No lagrangian fields

No FA fields

Time = 0.007

Reconstructing FV fields

    Reconstructing volScalarFields

        T
        mag(U)
        p
        p_0
        rho
        rho_0

    Reconstructing volVectorFields

        U
        U_0

    Reconstructing surfaceScalarFields

        phi
        phi_0

Reconstructing point fields

No point fields

No lagrangian fields

No FA fields

Time = 0.0072

Reconstructing FV fields

    Reconstructing volScalarFields

        T
        mag(U)
        p
        p_0
        rho
        rho_0

    Reconstructing volVectorFields

        U
        U_0

    Reconstructing surfaceScalarFields

        phi
        phi_0

Reconstructing point fields

No point fields

No lagrangian fields

No FA fields

Time = 0.0074

Reconstructing FV fields

    Reconstructing volScalarFields

        T
        mag(U)
        p
        p_0
        rho
        rho_0

    Reconstructing volVectorFields

        U
        U_0

    Reconstructing surfaceScalarFields

        phi
        phi_0

Reconstructing point fields

No point fields

No lagrangian fields

No FA fields

Time = 0.0076

Reconstructing FV fields

    Reconstructing volScalarFields

        T
        mag(U)
        p
        p_0
        rho
        rho_0

    Reconstructing volVectorFields

        U
        U_0

    Reconstructing surfaceScalarFields

        phi
        phi_0

Reconstructing point fields

No point fields

No lagrangian fields

No FA fields

Time = 0.0078

Reconstructing FV fields

    Reconstructing volScalarFields

        T
        mag(U)
        p
        p_0
        rho
        rho_0

    Reconstructing volVectorFields

        U
        U_0

    Reconstructing surfaceScalarFields

        phi
        phi_0

Reconstructing point fields

No point fields

No lagrangian fields

No FA fields

Time = 0.008

Reconstructing FV fields

    Reconstructing volScalarFields

        T
        mag(U)
        p
        p_0
        rho
        rho_0

    Reconstructing volVectorFields

        U
        U_0

    Reconstructing surfaceScalarFields

        phi
        phi_0

Reconstructing point fields

No point fields

No lagrangian fields

No FA fields

Time = 0.0082

Reconstructing FV fields

    Reconstructing volScalarFields

        T
        mag(U)
        p
        p_0
        rho
        rho_0

    Reconstructing volVectorFields

        U
        U_0

    Reconstructing surfaceScalarFields

        phi
        phi_0

Reconstructing point fields

No point fields

No lagrangian fields

No FA fields

Time = 0.0084

Reconstructing FV fields

    Reconstructing volScalarFields

        T
        mag(U)
        p
        p_0
        rho
        rho_0

    Reconstructing volVectorFields

        U
        U_0

    Reconstructing surfaceScalarFields

        phi
        phi_0

Reconstructing point fields

No point fields

No lagrangian fields

No FA fields

Time = 0.0086

Reconstructing FV fields

    Reconstructing volScalarFields

        T
        mag(U)
        p
        p_0
        rho
        rho_0

    Reconstructing volVectorFields

        U
        U_0

    Reconstructing surfaceScalarFields

        phi
        phi_0

Reconstructing point fields

No point fields

No lagrangian fields

No FA fields

Time = 0.0088

Reconstructing FV fields

    Reconstructing volScalarFields

        T
        mag(U)
        p
        p_0
        rho
        rho_0

    Reconstructing volVectorFields

        U
        U_0

    Reconstructing surfaceScalarFields

        phi
        phi_0

Reconstructing point fields

No point fields

No lagrangian fields

No FA fields

Time = 0.009

Reconstructing FV fields

    Reconstructing volScalarFields

        T
        mag(U)
        p
        p_0
        rho
        rho_0

    Reconstructing volVectorFields

        U
        U_0

    Reconstructing surfaceScalarFields

        phi
        phi_0

Reconstructing point fields

No point fields

No lagrangian fields

No FA fields

Time = 0.0092

Reconstructing FV fields

    Reconstructing volScalarFields

        T
        mag(U)
        p
        p_0
        rho
        rho_0

    Reconstructing volVectorFields

        U
        U_0

    Reconstructing surfaceScalarFields

        phi
        phi_0

Reconstructing point fields

No point fields

No lagrangian fields

No FA fields

Time = 0.0094

Reconstructing FV fields

    Reconstructing volScalarFields

        T
        mag(U)
        p
        p_0
        rho
        rho_0

    Reconstructing volVectorFields

        U
        U_0

    Reconstructing surfaceScalarFields

        phi
        phi_0

Reconstructing point fields

No point fields

No lagrangian fields

No FA fields

Time = 0.0096

Reconstructing FV fields

    Reconstructing volScalarFields

        T
        mag(U)
        p
        p_0
        rho
        rho_0

    Reconstructing volVectorFields

        U
        U_0

    Reconstructing surfaceScalarFields

        phi
        phi_0

Reconstructing point fields

No point fields

No lagrangian fields

No FA fields

Time = 0.0098

Reconstructing FV fields

    Reconstructing volScalarFields

        T
        mag(U)
        p
        p_0
        rho
        rho_0

    Reconstructing volVectorFields

        U
        U_0

    Reconstructing surfaceScalarFields

        phi
        phi_0

Reconstructing point fields

No point fields

No lagrangian fields

No FA fields

Time = 0.01

Reconstructing FV fields

    Reconstructing volScalarFields

        T
        mag(U)
        p
        p_0
        rho
        rho_0

    Reconstructing volVectorFields

        U
        U_0

    Reconstructing surfaceScalarFields

        phi
        phi_0

Reconstructing point fields

No point fields

No lagrangian fields

No FA fields

Time = 0.0102

Reconstructing FV fields

    Reconstructing volScalarFields

        T
        mag(U)
        p
        p_0
        rho
        rho_0

    Reconstructing volVectorFields

        U
        U_0

    Reconstructing surfaceScalarFields

        phi
        phi_0

Reconstructing point fields

No point fields

No lagrangian fields

No FA fields

Time = 0.0104

Reconstructing FV fields

    Reconstructing volScalarFields

        T
        mag(U)
        p
        p_0
        rho
        rho_0

    Reconstructing volVectorFields

        U
        U_0

    Reconstructing surfaceScalarFields

        phi
        phi_0

Reconstructing point fields

No point fields

No lagrangian fields

No FA fields

Time = 0.0106

Reconstructing FV fields

    Reconstructing volScalarFields

        T
        mag(U)
        p
        p_0
        rho
        rho_0

    Reconstructing volVectorFields

        U
        U_0

    Reconstructing surfaceScalarFields

        phi
        phi_0

Reconstructing point fields

No point fields

No lagrangian fields

No FA fields

Time = 0.0108

Reconstructing FV fields

    Reconstructing volScalarFields

        T
        mag(U)
        p
        p_0
        rho
        rho_0

    Reconstructing volVectorFields

        U
        U_0

    Reconstructing surfaceScalarFields

        phi
        phi_0

Reconstructing point fields

No point fields

No lagrangian fields

No FA fields

Time = 0.011

Reconstructing FV fields

    Reconstructing volScalarFields

        T
        mag(U)
        p
        p_0
        rho
        rho_0

    Reconstructing volVectorFields

        U
        U_0

    Reconstructing surfaceScalarFields

        phi
        phi_0

Reconstructing point fields

No point fields

No lagrangian fields

No FA fields

Time = 0.0112

Reconstructing FV fields

    Reconstructing volScalarFields

        T
        mag(U)
        p
        p_0
        rho
        rho_0

    Reconstructing volVectorFields

        U
        U_0

    Reconstructing surfaceScalarFields

        phi
        phi_0

Reconstructing point fields

No point fields

No lagrangian fields

No FA fields

Time = 0.0114

Reconstructing FV fields

    Reconstructing volScalarFields

        T
        mag(U)
        p
        p_0
        rho
        rho_0

    Reconstructing volVectorFields

        U
        U_0

    Reconstructing surfaceScalarFields

        phi
        phi_0

Reconstructing point fields

No point fields

No lagrangian fields

No FA fields

Time = 0.0116

Reconstructing FV fields

    Reconstructing volScalarFields

        T
        mag(U)
        p
        p_0
        rho
        rho_0

    Reconstructing volVectorFields

        U
        U_0

    Reconstructing surfaceScalarFields

        phi
        phi_0

Reconstructing point fields

No point fields

No lagrangian fields

No FA fields

Time = 0.0118

Reconstructing FV fields

    Reconstructing volScalarFields

        T
        mag(U)
        p
        p_0
        rho
        rho_0

    Reconstructing volVectorFields

        U
        U_0

    Reconstructing surfaceScalarFields

        phi
        phi_0

Reconstructing point fields

No point fields

No lagrangian fields

No FA fields

Time = 0.012

Reconstructing FV fields

    Reconstructing volScalarFields

        T
        mag(U)
        p
        p_0
        rho
        rho_0

    Reconstructing volVectorFields

        U
        U_0

    Reconstructing surfaceScalarFields

        phi
        phi_0

Reconstructing point fields

No point fields

No lagrangian fields

No FA fields

Time = 0.0122

Reconstructing FV fields

    Reconstructing volScalarFields

        T
        mag(U)
        p
        p_0
        rho
        rho_0

    Reconstructing volVectorFields

        U
        U_0

    Reconstructing surfaceScalarFields

        phi
        phi_0

Reconstructing point fields

No point fields

No lagrangian fields

No FA fields

Time = 0.0124

Reconstructing FV fields

    Reconstructing volScalarFields

        T
        mag(U)
        p
        p_0
        rho
        rho_0

    Reconstructing volVectorFields

        U
        U_0

    Reconstructing surfaceScalarFields

        phi
        phi_0

Reconstructing point fields

No point fields

No lagrangian fields

No FA fields

Time = 0.0126

Reconstructing FV fields

    Reconstructing volScalarFields

        T
        mag(U)
        p
        p_0
        rho
        rho_0

    Reconstructing volVectorFields

        U
        U_0

    Reconstructing surfaceScalarFields

        phi
        phi_0

Reconstructing point fields

No point fields

No lagrangian fields

No FA fields

Time = 0.0128

Reconstructing FV fields

    Reconstructing volScalarFields

        T
        mag(U)
        p
        p_0
        rho
        rho_0

    Reconstructing volVectorFields

        U
        U_0

    Reconstructing surfaceScalarFields

        phi
        phi_0

Reconstructing point fields

No point fields

No lagrangian fields

No FA fields

Time = 0.013

Reconstructing FV fields

    Reconstructing volScalarFields

        T
        mag(U)
        p
        p_0
        rho
        rho_0

    Reconstructing volVectorFields

        U
        U_0

    Reconstructing surfaceScalarFields

        phi
        phi_0

Reconstructing point fields

No point fields

No lagrangian fields

No FA fields

Time = 0.0132

Reconstructing FV fields

    Reconstructing volScalarFields

        T
        mag(U)
        p
        p_0
        rho
        rho_0

    Reconstructing volVectorFields

        U
        U_0

    Reconstructing surfaceScalarFields

        phi
        phi_0

Reconstructing point fields

No point fields

No lagrangian fields

No FA fields

Time = 0.0134

Reconstructing FV fields

    Reconstructing volScalarFields

        T
        mag(U)
        p
        p_0
        rho
        rho_0

    Reconstructing volVectorFields

        U
        U_0

    Reconstructing surfaceScalarFields

        phi
        phi_0

Reconstructing point fields

No point fields

No lagrangian fields

No FA fields

Time = 0.0136

Reconstructing FV fields

    Reconstructing volScalarFields

        T
        mag(U)
        p
        p_0
        rho
        rho_0

    Reconstructing volVectorFields

        U
        U_0

    Reconstructing surfaceScalarFields

        phi
        phi_0

Reconstructing point fields

No point fields

No lagrangian fields

No FA fields

Time = 0.0138

Reconstructing FV fields

    Reconstructing volScalarFields

        T
        mag(U)
        p
        p_0
        rho
        rho_0

    Reconstructing volVectorFields

        U
        U_0

    Reconstructing surfaceScalarFields

        phi
        phi_0

Reconstructing point fields

No point fields

No lagrangian fields

No FA fields

Time = 0.014

Reconstructing FV fields

    Reconstructing volScalarFields

        T
        mag(U)
        p
        p_0
        rho
        rho_0

    Reconstructing volVectorFields

        U
        U_0

    Reconstructing surfaceScalarFields

        phi
        phi_0

Reconstructing point fields

No point fields

No lagrangian fields

No FA fields

Time = 0.0142

Reconstructing FV fields

    Reconstructing volScalarFields

        T
        mag(U)
        p
        p_0
        rho
        rho_0

    Reconstructing volVectorFields

        U
        U_0

    Reconstructing surfaceScalarFields

        phi
        phi_0

Reconstructing point fields

No point fields

No lagrangian fields

No FA fields

Time = 0.0144

Reconstructing FV fields

    Reconstructing volScalarFields

        T
        mag(U)
        p
        p_0
        rho
        rho_0

    Reconstructing volVectorFields

        U
        U_0

    Reconstructing surfaceScalarFields

        phi
        phi_0

Reconstructing point fields

No point fields

No lagrangian fields

No FA fields

Time = 0.0146

Reconstructing FV fields

    Reconstructing volScalarFields

        T
        mag(U)
        p
        p_0
        rho
        rho_0

    Reconstructing volVectorFields

        U
        U_0

    Reconstructing surfaceScalarFields

        phi
        phi_0

Reconstructing point fields

No point fields

No lagrangian fields

No FA fields

Time = 0.0148

Reconstructing FV fields

    Reconstructing volScalarFields

        T
        mag(U)
        p
        p_0
        rho
        rho_0

    Reconstructing volVectorFields

        U
        U_0

    Reconstructing surfaceScalarFields

        phi
        phi_0

Reconstructing point fields

No point fields

No lagrangian fields

No FA fields

Time = 0.015

Reconstructing FV fields

    Reconstructing volScalarFields

        T
        mag(U)
        p
        p_0
        rho
        rho_0

    Reconstructing volVectorFields

        U
        U_0

    Reconstructing surfaceScalarFields

        phi
        phi_0

Reconstructing point fields

No point fields

No lagrangian fields

No FA fields

Time = 0.0152

Reconstructing FV fields

    Reconstructing volScalarFields

        T
        mag(U)
        p
        p_0
        rho
        rho_0

    Reconstructing volVectorFields

        U
        U_0

    Reconstructing surfaceScalarFields

        phi
        phi_0

Reconstructing point fields

No point fields

No lagrangian fields

No FA fields

Time = 0.0154

Reconstructing FV fields

    Reconstructing volScalarFields

        T
        mag(U)
        p
        p_0
        rho
        rho_0

    Reconstructing volVectorFields

        U
        U_0

    Reconstructing surfaceScalarFields

        phi
        phi_0

Reconstructing point fields

No point fields

No lagrangian fields

No FA fields

Time = 0.0156

Reconstructing FV fields

    Reconstructing volScalarFields

        T
        mag(U)
        p
        p_0
        rho
        rho_0

    Reconstructing volVectorFields

        U
        U_0

    Reconstructing surfaceScalarFields

        phi
        phi_0

Reconstructing point fields

No point fields

No lagrangian fields

No FA fields

Time = 0.0158

Reconstructing FV fields

    Reconstructing volScalarFields

        T
        mag(U)
        p
        p_0
        rho
        rho_0

    Reconstructing volVectorFields

        U
        U_0

    Reconstructing surfaceScalarFields

        phi
        phi_0

Reconstructing point fields

No point fields

No lagrangian fields

No FA fields

Time = 0.016

Reconstructing FV fields

    Reconstructing volScalarFields

        T
        mag(U)
        p
        p_0
        rho
        rho_0

    Reconstructing volVectorFields

        U
        U_0

    Reconstructing surfaceScalarFields

        phi
        phi_0

Reconstructing point fields

No point fields

No lagrangian fields

No FA fields

Time = 0.0162

Reconstructing FV fields

    Reconstructing volScalarFields

        T
        mag(U)
        p
        p_0
        rho
        rho_0

    Reconstructing volVectorFields

        U
        U_0

    Reconstructing surfaceScalarFields

        phi
        phi_0

Reconstructing point fields

No point fields

No lagrangian fields

No FA fields

Time = 0.0164

Reconstructing FV fields

    Reconstructing volScalarFields

        T
        mag(U)
        p
        p_0
        rho
        rho_0

    Reconstructing volVectorFields

        U
        U_0

    Reconstructing surfaceScalarFields

        phi
        phi_0

Reconstructing point fields

No point fields

No lagrangian fields

No FA fields

Time = 0.0166

Reconstructing FV fields

    Reconstructing volScalarFields

        T
        mag(U)
        p
        p_0
        rho
        rho_0

    Reconstructing volVectorFields

        U
        U_0

    Reconstructing surfaceScalarFields

        phi
        phi_0

Reconstructing point fields

No point fields

No lagrangian fields

No FA fields

Time = 0.0168

Reconstructing FV fields

    Reconstructing volScalarFields

        T
        mag(U)
        p
        p_0
        rho
        rho_0

    Reconstructing volVectorFields

        U
        U_0

    Reconstructing surfaceScalarFields

        phi
        phi_0

Reconstructing point fields

No point fields

No lagrangian fields

No FA fields

Time = 0.017

Reconstructing FV fields

    Reconstructing volScalarFields

        T
        mag(U)
        p
        p_0
        rho
        rho_0

    Reconstructing volVectorFields

        U
        U_0

    Reconstructing surfaceScalarFields

        phi
        phi_0

Reconstructing point fields

No point fields

No lagrangian fields

No FA fields

Time = 0.0172

Reconstructing FV fields

    Reconstructing volScalarFields

        T
        mag(U)
        p
        p_0
        rho
        rho_0

    Reconstructing volVectorFields

        U
        U_0

    Reconstructing surfaceScalarFields

        phi
        phi_0

Reconstructing point fields

No point fields

No lagrangian fields

No FA fields

Time = 0.0174

Reconstructing FV fields

    Reconstructing volScalarFields

        T
        mag(U)
        p
        p_0
        rho
        rho_0

    Reconstructing volVectorFields

        U
        U_0

    Reconstructing surfaceScalarFields

        phi
        phi_0

Reconstructing point fields

No point fields

No lagrangian fields

No FA fields

Time = 0.0176

Reconstructing FV fields

    Reconstructing volScalarFields

        T
        mag(U)
        p
        p_0
        rho
        rho_0

    Reconstructing volVectorFields

        U
        U_0

    Reconstructing surfaceScalarFields

        phi
        phi_0

Reconstructing point fields

No point fields

No lagrangian fields

No FA fields

Time = 0.0178

Reconstructing FV fields

    Reconstructing volScalarFields

        T
        mag(U)
        p
        p_0
        rho
        rho_0

    Reconstructing volVectorFields

        U
        U_0

    Reconstructing surfaceScalarFields

        phi
        phi_0

Reconstructing point fields

No point fields

No lagrangian fields

No FA fields

Time = 0.018

Reconstructing FV fields

    Reconstructing volScalarFields

        T
        mag(U)
        p
        p_0
        rho
        rho_0

    Reconstructing volVectorFields

        U
        U_0

    Reconstructing surfaceScalarFields

        phi
        phi_0

Reconstructing point fields

No point fields

No lagrangian fields

No FA fields

Time = 0.0182

Reconstructing FV fields

    Reconstructing volScalarFields

        T
        mag(U)
        p
        p_0
        rho
        rho_0

    Reconstructing volVectorFields

        U
        U_0

    Reconstructing surfaceScalarFields

        phi
        phi_0

Reconstructing point fields

No point fields

No lagrangian fields

No FA fields

Time = 0.0184

Reconstructing FV fields

    Reconstructing volScalarFields

        T
        mag(U)
        p
        p_0
        rho
        rho_0

    Reconstructing volVectorFields

        U
        U_0

    Reconstructing surfaceScalarFields

        phi
        phi_0

Reconstructing point fields

No point fields

No lagrangian fields

No FA fields

Time = 0.0186

Reconstructing FV fields

    Reconstructing volScalarFields

        T
        mag(U)
        p
        p_0
        rho
        rho_0

    Reconstructing volVectorFields

        U
        U_0

    Reconstructing surfaceScalarFields

        phi
        phi_0

Reconstructing point fields

No point fields

No lagrangian fields

No FA fields

Time = 0.0188

Reconstructing FV fields

    Reconstructing volScalarFields

        T
        mag(U)
        p
        p_0
        rho
        rho_0

    Reconstructing volVectorFields

        U
        U_0

    Reconstructing surfaceScalarFields

        phi
        phi_0

Reconstructing point fields

No point fields

No lagrangian fields

No FA fields

Time = 0.019

Reconstructing FV fields

    Reconstructing volScalarFields

        T
        mag(U)
        p
        p_0
        rho
        rho_0

    Reconstructing volVectorFields

        U
        U_0

    Reconstructing surfaceScalarFields

        phi
        phi_0

Reconstructing point fields

No point fields

No lagrangian fields

No FA fields

Time = 0.0192

Reconstructing FV fields

    Reconstructing volScalarFields

        T
        mag(U)
        p
        p_0
        rho
        rho_0

    Reconstructing volVectorFields

        U
        U_0

    Reconstructing surfaceScalarFields

        phi
        phi_0

Reconstructing point fields

No point fields

No lagrangian fields

No FA fields

Time = 0.0194

Reconstructing FV fields

    Reconstructing volScalarFields

        T
        mag(U)
        p
        p_0
        rho
        rho_0

    Reconstructing volVectorFields

        U
        U_0

    Reconstructing surfaceScalarFields

        phi
        phi_0

Reconstructing point fields

No point fields

No lagrangian fields

No FA fields

Time = 0.0196

Reconstructing FV fields

    Reconstructing volScalarFields

        T
        mag(U)
        p
        p_0
        rho
        rho_0

    Reconstructing volVectorFields

        U
        U_0

    Reconstructing surfaceScalarFields

        phi
        phi_0

Reconstructing point fields

No point fields

No lagrangian fields

No FA fields

Time = 0.0198

Reconstructing FV fields

    Reconstructing volScalarFields

        T
        mag(U)
        p
        p_0
        rho
        rho_0

    Reconstructing volVectorFields

        U
        U_0

    Reconstructing surfaceScalarFields

        phi
        phi_0

Reconstructing point fields

No point fields

No lagrangian fields

No FA fields

Time = 0.02

Reconstructing FV fields

    Reconstructing volScalarFields

        T
        mag(U)
        p
        p_0
        rho
        rho_0

    Reconstructing volVectorFields

        U
        U_0

    Reconstructing surfaceScalarFields

        phi
        phi_0

Reconstructing point fields

No point fields

No lagrangian fields

No FA fields

Time = 0.0202

Reconstructing FV fields

    Reconstructing volScalarFields

        T
        mag(U)
        p
        p_0
        rho
        rho_0

    Reconstructing volVectorFields

        U
        U_0

    Reconstructing surfaceScalarFields

        phi
        phi_0

Reconstructing point fields

No point fields

No lagrangian fields

No FA fields

Time = 0.0204

Reconstructing FV fields

    Reconstructing volScalarFields

        T
        mag(U)
        p
        p_0
        rho
        rho_0

    Reconstructing volVectorFields

        U
        U_0

    Reconstructing surfaceScalarFields

        phi
        phi_0

Reconstructing point fields

No point fields

No lagrangian fields

No FA fields

Time = 0.0206

Reconstructing FV fields

    Reconstructing volScalarFields

        T
        mag(U)
        p
        p_0
        rho
        rho_0

    Reconstructing volVectorFields

        U
        U_0

    Reconstructing surfaceScalarFields

        phi
        phi_0

Reconstructing point fields

No point fields

No lagrangian fields

No FA fields

Time = 0.0208

Reconstructing FV fields

    Reconstructing volScalarFields

        T
        mag(U)
        p
        p_0
        rho
        rho_0

    Reconstructing volVectorFields

        U
        U_0

    Reconstructing surfaceScalarFields

        phi
        phi_0

Reconstructing point fields

No point fields

No lagrangian fields

No FA fields

Time = 0.021

Reconstructing FV fields

    Reconstructing volScalarFields

        T
        mag(U)
        p
        p_0
        rho
        rho_0

    Reconstructing volVectorFields

        U
        U_0

    Reconstructing surfaceScalarFields

        phi
        phi_0

Reconstructing point fields

No point fields

No lagrangian fields

No FA fields

Time = 0.0212

Reconstructing FV fields

    Reconstructing volScalarFields

        T
        mag(U)
        p
        p_0
        rho
        rho_0

    Reconstructing volVectorFields

        U
        U_0

    Reconstructing surfaceScalarFields

        phi
        phi_0

Reconstructing point fields

No point fields

No lagrangian fields

No FA fields

Time = 0.0214

Reconstructing FV fields

    Reconstructing volScalarFields

        T
        mag(U)
        p
        p_0
        rho
        rho_0

    Reconstructing volVectorFields

        U
        U_0

    Reconstructing surfaceScalarFields

        phi
        phi_0

Reconstructing point fields

No point fields

No lagrangian fields

No FA fields

Time = 0.0216

Reconstructing FV fields

    Reconstructing volScalarFields

        T
        mag(U)
        p
        p_0
        rho
        rho_0

    Reconstructing volVectorFields

        U
        U_0

    Reconstructing surfaceScalarFields

        phi
        phi_0

Reconstructing point fields

No point fields

No lagrangian fields

No FA fields

Time = 0.0218

Reconstructing FV fields

    Reconstructing volScalarFields

        T
        mag(U)
        p
        p_0
        rho
        rho_0

    Reconstructing volVectorFields

        U
        U_0

    Reconstructing surfaceScalarFields

        phi
        phi_0

Reconstructing point fields

No point fields

No lagrangian fields

No FA fields

Time = 0.022

Reconstructing FV fields

    Reconstructing volScalarFields

        T
        mag(U)
        p
        p_0
        rho
        rho_0

    Reconstructing volVectorFields

        U
        U_0

    Reconstructing surfaceScalarFields

        phi
        phi_0

Reconstructing point fields

No point fields

No lagrangian fields

No FA fields

Time = 0.0222

Reconstructing FV fields

    Reconstructing volScalarFields

        T
        mag(U)
        p
        p_0
        rho
        rho_0

    Reconstructing volVectorFields

        U
        U_0

    Reconstructing surfaceScalarFields

        phi
        phi_0

Reconstructing point fields

No point fields

No lagrangian fields

No FA fields

Time = 0.0224

Reconstructing FV fields

    Reconstructing volScalarFields

        T
        mag(U)
        p
        p_0
        rho
        rho_0

    Reconstructing volVectorFields

        U
        U_0

    Reconstructing surfaceScalarFields

        phi
        phi_0

Reconstructing point fields

No point fields

No lagrangian fields

No FA fields

Time = 0.0226

Reconstructing FV fields

    Reconstructing volScalarFields

        T
        mag(U)
        p
        p_0
        rho
        rho_0

    Reconstructing volVectorFields

        U
        U_0

    Reconstructing surfaceScalarFields

        phi
        phi_0

Reconstructing point fields

No point fields

No lagrangian fields

No FA fields

Time = 0.0228

Reconstructing FV fields

    Reconstructing volScalarFields

        T
        mag(U)
        p
        p_0
        rho
        rho_0

    Reconstructing volVectorFields

        U
        U_0

    Reconstructing surfaceScalarFields

        phi
        phi_0

Reconstructing point fields

No point fields

No lagrangian fields

No FA fields

Time = 0.023

Reconstructing FV fields

    Reconstructing volScalarFields

        T
        mag(U)
        p
        p_0
        rho
        rho_0

    Reconstructing volVectorFields

        U
        U_0

    Reconstructing surfaceScalarFields

        phi
        phi_0

Reconstructing point fields

No point fields

No lagrangian fields

No FA fields

Time = 0.0232

Reconstructing FV fields

    Reconstructing volScalarFields

        T
        mag(U)
        p
        p_0
        rho
        rho_0

    Reconstructing volVectorFields

        U
        U_0

    Reconstructing surfaceScalarFields

        phi
        phi_0

Reconstructing point fields

No point fields

No lagrangian fields

No FA fields

Time = 0.0234

Reconstructing FV fields

    Reconstructing volScalarFields

        T
        mag(U)
        p
        p_0
        rho
        rho_0

    Reconstructing volVectorFields

        U
        U_0

    Reconstructing surfaceScalarFields

        phi
        phi_0

Reconstructing point fields

No point fields

No lagrangian fields

No FA fields

Time = 0.0236

Reconstructing FV fields

    Reconstructing volScalarFields

        T
        mag(U)
        p
        p_0
        rho
        rho_0

    Reconstructing volVectorFields

        U
        U_0

    Reconstructing surfaceScalarFields

        phi
        phi_0

Reconstructing point fields

No point fields

No lagrangian fields

No FA fields

Time = 0.0238

Reconstructing FV fields

    Reconstructing volScalarFields

        T
        mag(U)
        p
        p_0
        rho
        rho_0

    Reconstructing volVectorFields

        U
        U_0

    Reconstructing surfaceScalarFields

        phi
        phi_0

Reconstructing point fields

No point fields

No lagrangian fields

No FA fields

Time = 0.024

Reconstructing FV fields

    Reconstructing volScalarFields

        T
        mag(U)
        p
        p_0
        rho
        rho_0

    Reconstructing volVectorFields

        U
        U_0

    Reconstructing surfaceScalarFields

        phi
        phi_0

Reconstructing point fields

No point fields

No lagrangian fields

No FA fields

Time = 0.0242

Reconstructing FV fields

    Reconstructing volScalarFields

        T
        mag(U)
        p
        p_0
        rho
        rho_0

    Reconstructing volVectorFields

        U
        U_0

    Reconstructing surfaceScalarFields

        phi
        phi_0

Reconstructing point fields

No point fields

No lagrangian fields

No FA fields

Time = 0.0244

Reconstructing FV fields

    Reconstructing volScalarFields

        T
        mag(U)
        p
        p_0
        rho
        rho_0

    Reconstructing volVectorFields

        U
        U_0

    Reconstructing surfaceScalarFields

        phi
        phi_0

Reconstructing point fields

No point fields

No lagrangian fields

No FA fields

Time = 0.0246

Reconstructing FV fields

    Reconstructing volScalarFields

        T
        mag(U)
        p
        p_0
        rho
        rho_0

    Reconstructing volVectorFields

        U
        U_0

    Reconstructing surfaceScalarFields

        phi
        phi_0

Reconstructing point fields

No point fields

No lagrangian fields

No FA fields

Time = 0.0248

Reconstructing FV fields

    Reconstructing volScalarFields

        T
        mag(U)
        p
        p_0
        rho
        rho_0

    Reconstructing volVectorFields

        U
        U_0

    Reconstructing surfaceScalarFields

        phi
        phi_0

Reconstructing point fields

No point fields

No lagrangian fields

No FA fields

Time = 0.025

Reconstructing FV fields

    Reconstructing volScalarFields

        T
        mag(U)
        p
        p_0
        rho
        rho_0

    Reconstructing volVectorFields

        U
        U_0

    Reconstructing surfaceScalarFields

        phi
        phi_0

Reconstructing point fields

No point fields

No lagrangian fields

No FA fields

Time = 0.0252

Reconstructing FV fields

    Reconstructing volScalarFields

        T
        mag(U)
        p
        p_0
        rho
        rho_0

    Reconstructing volVectorFields

        U
        U_0

    Reconstructing surfaceScalarFields

        phi
        phi_0

Reconstructing point fields

No point fields

No lagrangian fields

No FA fields

Time = 0.0254

Reconstructing FV fields

    Reconstructing volScalarFields

        T
        mag(U)
        p
        p_0
        rho
        rho_0

    Reconstructing volVectorFields

        U
        U_0

    Reconstructing surfaceScalarFields

        phi
        phi_0

Reconstructing point fields

No point fields

No lagrangian fields

No FA fields

Time = 0.0256

Reconstructing FV fields

    Reconstructing volScalarFields

        T
        mag(U)
        p
        p_0
        rho
        rho_0

    Reconstructing volVectorFields

        U
        U_0

    Reconstructing surfaceScalarFields

        phi
        phi_0

Reconstructing point fields

No point fields

No lagrangian fields

No FA fields

Time = 0.0258

Reconstructing FV fields

    Reconstructing volScalarFields

        T
        mag(U)
        p
        p_0
        rho
        rho_0

    Reconstructing volVectorFields

        U
        U_0

    Reconstructing surfaceScalarFields

        phi
        phi_0

Reconstructing point fields

No point fields

No lagrangian fields

No FA fields

Time = 0.026

Reconstructing FV fields

    Reconstructing volScalarFields

        T
        mag(U)
        p
        p_0
        rho
        rho_0

    Reconstructing volVectorFields

        U
        U_0

    Reconstructing surfaceScalarFields

        phi
        phi_0

Reconstructing point fields

No point fields

No lagrangian fields

No FA fields

Time = 0.0262

Reconstructing FV fields

    Reconstructing volScalarFields

        T
        mag(U)
        p
        p_0
        rho
        rho_0

    Reconstructing volVectorFields

        U
        U_0

    Reconstructing surfaceScalarFields

        phi
        phi_0

Reconstructing point fields

No point fields

No lagrangian fields

No FA fields

Time = 0.0264

Reconstructing FV fields

    Reconstructing volScalarFields

        T
        mag(U)
        p
        p_0
        rho
        rho_0

    Reconstructing volVectorFields

        U
        U_0

    Reconstructing surfaceScalarFields

        phi
        phi_0

Reconstructing point fields

No point fields

No lagrangian fields

No FA fields

Time = 0.0266

Reconstructing FV fields

    Reconstructing volScalarFields

        T
        mag(U)
        p
        p_0
        rho
        rho_0

    Reconstructing volVectorFields

        U
        U_0

    Reconstructing surfaceScalarFields

        phi
        phi_0

Reconstructing point fields

No point fields

No lagrangian fields

No FA fields

Time = 0.0268

Reconstructing FV fields

    Reconstructing volScalarFields

        T
        mag(U)
        p
        p_0
        rho
        rho_0

    Reconstructing volVectorFields

        U
        U_0

    Reconstructing surfaceScalarFields

        phi
        phi_0

Reconstructing point fields

No point fields

No lagrangian fields

No FA fields

Time = 0.027

Reconstructing FV fields

    Reconstructing volScalarFields

        T
        mag(U)
        p
        p_0
        rho
        rho_0

    Reconstructing volVectorFields

        U
        U_0

    Reconstructing surfaceScalarFields

        phi
        phi_0

Reconstructing point fields

No point fields

No lagrangian fields

No FA fields

Time = 0.0272

Reconstructing FV fields

    Reconstructing volScalarFields

        T
        mag(U)
        p
        p_0
        rho
        rho_0

    Reconstructing volVectorFields

        U
        U_0

    Reconstructing surfaceScalarFields

        phi
        phi_0

Reconstructing point fields

No point fields

No lagrangian fields

No FA fields

Time = 0.0274

Reconstructing FV fields

    Reconstructing volScalarFields

        T
        mag(U)
        p
        p_0
        rho
        rho_0

    Reconstructing volVectorFields

        U
        U_0

    Reconstructing surfaceScalarFields

        phi
        phi_0

Reconstructing point fields

No point fields

No lagrangian fields

No FA fields

Time = 0.0276

Reconstructing FV fields

    Reconstructing volScalarFields

        T
        mag(U)
        p
        p_0
        rho
        rho_0

    Reconstructing volVectorFields

        U
        U_0

    Reconstructing surfaceScalarFields

        phi
        phi_0

Reconstructing point fields

No point fields

No lagrangian fields

No FA fields

Time = 0.0278

Reconstructing FV fields

    Reconstructing volScalarFields

        T
        mag(U)
        p
        p_0
        rho
        rho_0

    Reconstructing volVectorFields

        U
        U_0

    Reconstructing surfaceScalarFields

        phi
        phi_0

Reconstructing point fields

No point fields

No lagrangian fields

No FA fields

Time = 0.028

Reconstructing FV fields

    Reconstructing volScalarFields

        T
        mag(U)
        p
        p_0
        rho
        rho_0

    Reconstructing volVectorFields

        U
        U_0

    Reconstructing surfaceScalarFields

        phi
        phi_0

Reconstructing point fields

No point fields

No lagrangian fields

No FA fields

Time = 0.0282

Reconstructing FV fields

    Reconstructing volScalarFields

        T
        mag(U)
        p
        p_0
        rho
        rho_0

    Reconstructing volVectorFields

        U
        U_0

    Reconstructing surfaceScalarFields

        phi
        phi_0

Reconstructing point fields

No point fields

No lagrangian fields

No FA fields

Time = 0.0284

Reconstructing FV fields

    Reconstructing volScalarFields

        T
        mag(U)
        p
        p_0
        rho
        rho_0

    Reconstructing volVectorFields

        U
        U_0

    Reconstructing surfaceScalarFields

        phi
        phi_0

Reconstructing point fields

No point fields

No lagrangian fields

No FA fields

Time = 0.0286

Reconstructing FV fields

    Reconstructing volScalarFields

        T
        mag(U)
        p
        p_0
        rho
        rho_0

    Reconstructing volVectorFields

        U
        U_0

    Reconstructing surfaceScalarFields

        phi
        phi_0

Reconstructing point fields

No point fields

No lagrangian fields

No FA fields

Time = 0.0288

Reconstructing FV fields

    Reconstructing volScalarFields

        T
        mag(U)
        p
        p_0
        rho
        rho_0

    Reconstructing volVectorFields

        U
        U_0

    Reconstructing surfaceScalarFields

        phi
        phi_0

Reconstructing point fields

No point fields

No lagrangian fields

No FA fields

Time = 0.029

Reconstructing FV fields

    Reconstructing volScalarFields

        T
        mag(U)
        p
        p_0
        rho
        rho_0

    Reconstructing volVectorFields

        U
        U_0

    Reconstructing surfaceScalarFields

        phi
        phi_0

Reconstructing point fields

No point fields

No lagrangian fields

No FA fields

Time = 0.0292

Reconstructing FV fields

    Reconstructing volScalarFields

        T
        mag(U)
        p
        p_0
        rho
        rho_0

    Reconstructing volVectorFields

        U
        U_0

    Reconstructing surfaceScalarFields

        phi
        phi_0

Reconstructing point fields

No point fields

No lagrangian fields

No FA fields


End

