/*---------------------------------------------------------------------------*\
| =========                 |                                                 |
| \\      /  F ield         | OpenFOAM: The Open Source CFD Toolbox           |
|  \\    /   O peration     | Version:  v2006                                 |
|   \\  /    A nd           | Website:  www.openfoam.com                      |
|    \\/     M anipulation  |                                                 |
\*---------------------------------------------------------------------------*/
Build  : _b45f8f6f58-20200629 OPENFOAM=2006
Arch   : "LSB;label=32;scalar=64"
Exec   : /opt/OpenFOAM/OpenFOAM-v2006/platforms/linux64GccDPInt32Opt/bin/surfaceFeatureExtract
Date   : Feb 18 2022
Time   : 00:52:37
Host   : sylogin1.pi.sjtu.edu.cn
PID    : 783663
I/O    : collated (maxThreadFileBufferSize 0)
         Threading not activated since maxThreadFileBufferSize = 0.
         Writing may run slowly for large file sizes.
Case   : /dssg/home/acct-medgm/medgm/05-NSCBC-Z64/Workspace/run/sineWaveDampingPimpleFoam3Dduct-finer
nProcs : 1
trapFpe: Floating point exception trapping enabled (FOAM_SIGFPE).
fileModificationChecking : Monitoring run-time modified files using timeStamp (fileModificationSkew 5, maxFileModificationPolls 20)
allowSystemOperations : Allowing user-supplied system call operations

// * * * * * * * * * * * * * * * * * * * * * * * * * * * * * * * * * * * * * //
Create time

--> FOAM Warning : 
    From void* Foam::dlLibraryTable::openLibrary(const Foam::fileName&, bool)
    in file db/dynamicLibrary/dlLibraryTable/dlLibraryTable.C at line 65
    Could not load "libvelocityOutletNSCBC.so"
/home/ofuser/OpenFOAM/ofuser-v2006/platforms/linux64GccDPInt32Opt/lib/libvelocityOutletNSCBC.so: undefined symbol: _ZN4Foam14GeometricFieldIdNS_13fvsPatchFieldENS_11surfaceMeshEE8typeNameE
--> FOAM Warning : 
    From void* Foam::dlLibraryTable::openLibrary(const Foam::fileName&, bool)
    in file db/dynamicLibrary/dlLibraryTable/dlLibraryTable.C at line 65
    Could not load "libwaveTransmision.so"
/home/ofuser/OpenFOAM/ofuser-v2006/platforms/linux64GccDPInt32Opt/lib/libwaveTransmision.so: undefined symbol: _ZN4Foam14GeometricFieldIdNS_13fvsPatchFieldENS_11surfaceMeshEE8typeNameE
--> FOAM Warning : 
    From void* Foam::dlLibraryTable::openLibrary(const Foam::fileName&, bool)
    in file db/dynamicLibrary/dlLibraryTable/dlLibraryTable.C at line 65
    Could not load "libpressureOutletNSCBC.so"
/home/ofuser/OpenFOAM/ofuser-v2006/platforms/linux64GccDPInt32Opt/lib/libpressureOutletNSCBC.so: undefined symbol: _ZN4Foam14GeometricFieldIdNS_13fvsPatchFieldENS_11surfaceMeshEE8typeNameE
--> FOAM Warning : 
    From void* Foam::dlLibraryTable::openLibrary(const Foam::fileName&, bool)
    in file db/dynamicLibrary/dlLibraryTable/dlLibraryTable.C at line 65
    Could not load "libpressureInletNSCBC.so"
/home/ofuser/OpenFOAM/ofuser-v2006/platforms/linux64GccDPInt32Opt/lib/libpressureInletNSCBC.so: undefined symbol: _ZN4Foam14GeometricFieldIdNS_13fvsPatchFieldENS_11surfaceMeshEE8typeNameE
--> FOAM Warning : 
    From void* Foam::dlLibraryTable::openLibrary(const Foam::fileName&, bool)
    in file db/dynamicLibrary/dlLibraryTable/dlLibraryTable.C at line 65
    Could not load "libtemperatureOutletNSCBC.so"
/home/ofuser/OpenFOAM/ofuser-v2006/platforms/linux64GccDPInt32Opt/lib/libtemperatureOutletNSCBC.so: undefined symbol: _ZN4Foam14GeometricFieldIdNS_13fvsPatchFieldENS_11surfaceMeshEE8typeNameE

Note: Feature line extraction only valid on closed manifold surfaces

Reading surfaceFeatureExtractDict

Surfaces     : body.stl
Output       : body
Load options : offset
Write options: writeObj=off writeVTK=off

Statistics:
Triangles    : 344 in 1 region(s)
Vertices     : 174
Bounding Box : (-0.300000011920929 -0.2997998893260956 -2) (0.300000011920929 0.2997998893260956 2)

Constructing feature set from included angle 150
Selecting edges based purely on geometric tests: no
Removing features with number of edges < 10

Initial Feature set:
    points : 0
    edges  : 172
    of which
        region edges   : 0
        external edges : 172
        internal edges : 0

Final Feature set:
    points : 172
    of which
        convex             : 0
        concave            : 0
        mixed              : 0
        non-feature        : 172
    edges  : 172
    of which
        external edges     : 172
        internal edges     : 0
        flat edges         : 0
        open edges         : 0
        multiply connected : 0

Writing extendedFeatureEdgeMesh to "/dssg/home/acct-medgm/medgm/05-NSCBC-Z64/Workspace/run/sineWaveDampingPimpleFoam3Dduct-finer/constant/extendedFeatureEdgeMesh/body.extendedFeatureEdgeMesh"

Writing featureEdgeMesh to "/dssg/home/acct-medgm/medgm/05-NSCBC-Z64/Workspace/run/sineWaveDampingPimpleFoam3Dduct-finer/constant/triSurface/body.eMesh"
ExecutionTime = 0.02 s  ClockTime = 0 s

End

