/*---------------------------------------------------------------------------*\
  =========                 |
  \\      /  F ield         | OpenFOAM: The Open Source CFD Toolbox
   \\    /   O peration     | Website:  https://openfoam.org
    \\  /    A nd           | Version:  7
     \\/     M anipulation  |
\*---------------------------------------------------------------------------*/
Build  : 7-83cd285f0e3f
Exec   : reconstructPar
Date   : Jan 28 2022
Time   : 20:26:05
Host   : "login1.pi.sjtu.edu.cn"
PID    : 30156
I/O    : collated (maxThreadFileBufferSize 2e+09)
         Threading activated since maxThreadFileBufferSize > 0.
         Requires large enough buffer to collect all data or thread support 
         enabled in MPI. If thread support cannot be enabled, deactivate
         threading by setting maxThreadFileBufferSize to 0 in
         $FOAM_ETC/controlDict
Case   : /lustre/home/acct-medgm/medgm/05-NSCBC/Workspace/run/sod_shock_tube
nProcs : 1
sigFpe : Enabling floating point exception trapping (FOAM_SIGFPE).
fileModificationChecking : Monitoring run-time modified files using timeStamp (fileModificationSkew 10)
allowSystemOperations : Allowing user-supplied system call operations

// * * * * * * * * * * * * * * * * * * * * * * * * * * * * * * * * * * * * * //
Create time



Reconstructing fields for mesh region0

Time = 1e-05

Reconstructing FV fields

    Reconstructing volScalarFields

        p
        T
        rho

    Reconstructing volVectorFields

        U

    Reconstructing surfaceScalarFields

        phi

Reconstructing point fields

No point fields

No lagrangian fields

Time = 2e-05

Reconstructing FV fields

    Reconstructing volScalarFields

        p
        T
        rho

    Reconstructing volVectorFields

        U

    Reconstructing surfaceScalarFields

        phi

Reconstructing point fields

No point fields

No lagrangian fields

Time = 3e-05

Reconstructing FV fields

    Reconstructing volScalarFields

        p
        T
        rho

    Reconstructing volVectorFields

        U

    Reconstructing surfaceScalarFields

        phi

Reconstructing point fields

No point fields

No lagrangian fields

Time = 4e-05

Reconstructing FV fields

    Reconstructing volScalarFields

        p
        T
        rho

    Reconstructing volVectorFields

        U

    Reconstructing surfaceScalarFields

        phi

Reconstructing point fields

No point fields

No lagrangian fields

Time = 5e-05

Reconstructing FV fields

    Reconstructing volScalarFields

        p
        T
        rho

    Reconstructing volVectorFields

        U

    Reconstructing surfaceScalarFields

        phi

Reconstructing point fields

No point fields

No lagrangian fields

Time = 6e-05

Reconstructing FV fields

    Reconstructing volScalarFields

        p
        T
        rho

    Reconstructing volVectorFields

        U

    Reconstructing surfaceScalarFields

        phi

Reconstructing point fields

No point fields

No lagrangian fields

Time = 7e-05

Reconstructing FV fields

    Reconstructing volScalarFields

        p
        T
        rho

    Reconstructing volVectorFields

        U

    Reconstructing surfaceScalarFields

        phi

Reconstructing point fields

No point fields

No lagrangian fields

Time = 8e-05

Reconstructing FV fields

    Reconstructing volScalarFields

        p
        T
        rho

    Reconstructing volVectorFields

        U

    Reconstructing surfaceScalarFields

        phi

Reconstructing point fields

No point fields

No lagrangian fields

Time = 9e-05

Reconstructing FV fields

    Reconstructing volScalarFields

        p
        T
        rho

    Reconstructing volVectorFields

        U

    Reconstructing surfaceScalarFields

        phi

Reconstructing point fields

No point fields

No lagrangian fields

Time = 0.0001

Reconstructing FV fields

    Reconstructing volScalarFields

        p
        T
        rho

    Reconstructing volVectorFields

        U

    Reconstructing surfaceScalarFields

        phi

Reconstructing point fields

No point fields

No lagrangian fields

Time = 0.00011

Reconstructing FV fields

    Reconstructing volScalarFields

        p
        T
        rho

    Reconstructing volVectorFields

        U

    Reconstructing surfaceScalarFields

        phi

Reconstructing point fields

No point fields

No lagrangian fields

Time = 0.00012

Reconstructing FV fields

    Reconstructing volScalarFields

        p
        T
        rho

    Reconstructing volVectorFields

        U

    Reconstructing surfaceScalarFields

        phi

Reconstructing point fields

No point fields

No lagrangian fields

Time = 0.00013

Reconstructing FV fields

    Reconstructing volScalarFields

        p
        T
        rho

    Reconstructing volVectorFields

        U

    Reconstructing surfaceScalarFields

        phi

Reconstructing point fields

No point fields

No lagrangian fields

Time = 0.00014

Reconstructing FV fields

    Reconstructing volScalarFields

        p
        T
        rho

    Reconstructing volVectorFields

        U

    Reconstructing surfaceScalarFields

        phi

Reconstructing point fields

No point fields

No lagrangian fields

Time = 0.00015

Reconstructing FV fields

    Reconstructing volScalarFields

        p
        T
        rho

    Reconstructing volVectorFields

        U

    Reconstructing surfaceScalarFields

        phi

Reconstructing point fields

No point fields

No lagrangian fields

Time = 0.00016

Reconstructing FV fields

    Reconstructing volScalarFields

        p
        T
        rho

    Reconstructing volVectorFields

        U

    Reconstructing surfaceScalarFields

        phi

Reconstructing point fields

No point fields

No lagrangian fields

Time = 0.00017

Reconstructing FV fields

    Reconstructing volScalarFields

        p
        T
        rho

    Reconstructing volVectorFields

        U

    Reconstructing surfaceScalarFields

        phi

Reconstructing point fields

No point fields

No lagrangian fields

Time = 0.00018

Reconstructing FV fields

    Reconstructing volScalarFields

        p
        T
        rho

    Reconstructing volVectorFields

        U

    Reconstructing surfaceScalarFields

        phi

Reconstructing point fields

No point fields

No lagrangian fields

Time = 0.00019

Reconstructing FV fields

    Reconstructing volScalarFields

        p
        T
        rho

    Reconstructing volVectorFields

        U

    Reconstructing surfaceScalarFields

        phi

Reconstructing point fields

No point fields

No lagrangian fields

Time = 0.0002

Reconstructing FV fields

    Reconstructing volScalarFields

        p
        T
        rho

    Reconstructing volVectorFields

        U

    Reconstructing surfaceScalarFields

        phi

Reconstructing point fields

No point fields

No lagrangian fields

Time = 0.00021

Reconstructing FV fields

    Reconstructing volScalarFields

        p
        T
        rho

    Reconstructing volVectorFields

        U

    Reconstructing surfaceScalarFields

        phi

Reconstructing point fields

No point fields

No lagrangian fields

Time = 0.00022

Reconstructing FV fields

    Reconstructing volScalarFields

        p
        T
        rho

    Reconstructing volVectorFields

        U

    Reconstructing surfaceScalarFields

        phi

Reconstructing point fields

No point fields

No lagrangian fields

Time = 0.00023

Reconstructing FV fields

    Reconstructing volScalarFields

        p
        T
        rho

    Reconstructing volVectorFields

        U

    Reconstructing surfaceScalarFields

        phi

Reconstructing point fields

No point fields

No lagrangian fields

Time = 0.00024

Reconstructing FV fields

    Reconstructing volScalarFields

        p
        T
        rho

    Reconstructing volVectorFields

        U

    Reconstructing surfaceScalarFields

        phi

Reconstructing point fields

No point fields

No lagrangian fields

Time = 0.00025

Reconstructing FV fields

    Reconstructing volScalarFields

        p
        T
        rho

    Reconstructing volVectorFields

        U

    Reconstructing surfaceScalarFields

        phi

Reconstructing point fields

No point fields

No lagrangian fields

Time = 0.00026

Reconstructing FV fields

    Reconstructing volScalarFields

        p
        T
        rho

    Reconstructing volVectorFields

        U

    Reconstructing surfaceScalarFields

        phi

Reconstructing point fields

No point fields

No lagrangian fields

Time = 0.00027

Reconstructing FV fields

    Reconstructing volScalarFields

        p
        T
        rho

    Reconstructing volVectorFields

        U

    Reconstructing surfaceScalarFields

        phi

Reconstructing point fields

No point fields

No lagrangian fields

Time = 0.00028

Reconstructing FV fields

    Reconstructing volScalarFields

        p
        T
        rho

    Reconstructing volVectorFields

        U

    Reconstructing surfaceScalarFields

        phi

Reconstructing point fields

No point fields

No lagrangian fields

Time = 0.00029

Reconstructing FV fields

    Reconstructing volScalarFields

        p
        T
        rho

    Reconstructing volVectorFields

        U

    Reconstructing surfaceScalarFields

        phi

Reconstructing point fields

No point fields

No lagrangian fields

Time = 0.0003

Reconstructing FV fields

    Reconstructing volScalarFields

        p
        T
        rho

    Reconstructing volVectorFields

        U

    Reconstructing surfaceScalarFields

        phi

Reconstructing point fields

No point fields

No lagrangian fields

Time = 0.00031

Reconstructing FV fields

    Reconstructing volScalarFields

        p
        T
        rho

    Reconstructing volVectorFields

        U

    Reconstructing surfaceScalarFields

        phi

Reconstructing point fields

No point fields

No lagrangian fields

Time = 0.00032

Reconstructing FV fields

    Reconstructing volScalarFields

        p
        T
        rho

    Reconstructing volVectorFields

        U

    Reconstructing surfaceScalarFields

        phi

Reconstructing point fields

No point fields

No lagrangian fields

Time = 0.00033

Reconstructing FV fields

    Reconstructing volScalarFields

        p
        T
        rho

    Reconstructing volVectorFields

        U

    Reconstructing surfaceScalarFields

        phi

Reconstructing point fields

No point fields

No lagrangian fields

Time = 0.00034

Reconstructing FV fields

    Reconstructing volScalarFields

        p
        T
        rho

    Reconstructing volVectorFields

        U

    Reconstructing surfaceScalarFields

        phi

Reconstructing point fields

No point fields

No lagrangian fields

Time = 0.00035

Reconstructing FV fields

    Reconstructing volScalarFields

        p
        T
        rho

    Reconstructing volVectorFields

        U

    Reconstructing surfaceScalarFields

        phi

Reconstructing point fields

No point fields

No lagrangian fields

Time = 0.00036

Reconstructing FV fields

    Reconstructing volScalarFields

        p
        T
        rho

    Reconstructing volVectorFields

        U

    Reconstructing surfaceScalarFields

        phi

Reconstructing point fields

No point fields

No lagrangian fields

Time = 0.00037

Reconstructing FV fields

    Reconstructing volScalarFields

        p
        T
        rho

    Reconstructing volVectorFields

        U

    Reconstructing surfaceScalarFields

        phi

Reconstructing point fields

No point fields

No lagrangian fields

Time = 0.00038

Reconstructing FV fields

    Reconstructing volScalarFields

        p
        T
        rho

    Reconstructing volVectorFields

        U

    Reconstructing surfaceScalarFields

        phi

Reconstructing point fields

No point fields

No lagrangian fields

Time = 0.00039

Reconstructing FV fields

    Reconstructing volScalarFields

        p
        T
        rho

    Reconstructing volVectorFields

        U

    Reconstructing surfaceScalarFields

        phi

Reconstructing point fields

No point fields

No lagrangian fields

Time = 0.0004

Reconstructing FV fields

    Reconstructing volScalarFields

        p
        T
        rho

    Reconstructing volVectorFields

        U

    Reconstructing surfaceScalarFields

        phi

Reconstructing point fields

No point fields

No lagrangian fields

Time = 0.00041

Reconstructing FV fields

    Reconstructing volScalarFields

        p
        T
        rho

    Reconstructing volVectorFields

        U

    Reconstructing surfaceScalarFields

        phi

Reconstructing point fields

No point fields

No lagrangian fields

Time = 0.00042

Reconstructing FV fields

    Reconstructing volScalarFields

        p
        T
        rho

    Reconstructing volVectorFields

        U

    Reconstructing surfaceScalarFields

        phi

Reconstructing point fields

No point fields

No lagrangian fields

Time = 0.00043

Reconstructing FV fields

    Reconstructing volScalarFields

        p
        T
        rho

    Reconstructing volVectorFields

        U

    Reconstructing surfaceScalarFields

        phi

Reconstructing point fields

No point fields

No lagrangian fields

Time = 0.00044

Reconstructing FV fields

    Reconstructing volScalarFields

        p
        T
        rho

    Reconstructing volVectorFields

        U

    Reconstructing surfaceScalarFields

        phi

Reconstructing point fields

No point fields

No lagrangian fields

Time = 0.00045

Reconstructing FV fields

    Reconstructing volScalarFields

        p
        T
        rho

    Reconstructing volVectorFields

        U

    Reconstructing surfaceScalarFields

        phi

Reconstructing point fields

No point fields

No lagrangian fields

Time = 0.00046

Reconstructing FV fields

    Reconstructing volScalarFields

        p
        T
        rho

    Reconstructing volVectorFields

        U

    Reconstructing surfaceScalarFields

        phi

Reconstructing point fields

No point fields

No lagrangian fields

Time = 0.00047

Reconstructing FV fields

    Reconstructing volScalarFields

        p
        T
        rho

    Reconstructing volVectorFields

        U

    Reconstructing surfaceScalarFields

        phi

Reconstructing point fields

No point fields

No lagrangian fields

Time = 0.00048

Reconstructing FV fields

    Reconstructing volScalarFields

        p
        T
        rho

    Reconstructing volVectorFields

        U

    Reconstructing surfaceScalarFields

        phi

Reconstructing point fields

No point fields

No lagrangian fields

Time = 0.00049

Reconstructing FV fields

    Reconstructing volScalarFields

        p
        T
        rho

    Reconstructing volVectorFields

        U

    Reconstructing surfaceScalarFields

        phi

Reconstructing point fields

No point fields

No lagrangian fields

Time = 0.0005

Reconstructing FV fields

    Reconstructing volScalarFields

        p
        T
        rho

    Reconstructing volVectorFields

        U

    Reconstructing surfaceScalarFields

        phi

Reconstructing point fields

No point fields

No lagrangian fields

Time = 0.00051

Reconstructing FV fields

    Reconstructing volScalarFields

        p
        T
        rho

    Reconstructing volVectorFields

        U

    Reconstructing surfaceScalarFields

        phi

Reconstructing point fields

No point fields

No lagrangian fields

Time = 0.00052

Reconstructing FV fields

    Reconstructing volScalarFields

        p
        T
        rho

    Reconstructing volVectorFields

        U

    Reconstructing surfaceScalarFields

        phi

Reconstructing point fields

No point fields

No lagrangian fields

Time = 0.00053

Reconstructing FV fields

    Reconstructing volScalarFields

        p
        T
        rho

    Reconstructing volVectorFields

        U

    Reconstructing surfaceScalarFields

        phi

Reconstructing point fields

No point fields

No lagrangian fields

Time = 0.00054

Reconstructing FV fields

    Reconstructing volScalarFields

        p
        T
        rho

    Reconstructing volVectorFields

        U

    Reconstructing surfaceScalarFields

        phi

Reconstructing point fields

No point fields

No lagrangian fields

Time = 0.00055

Reconstructing FV fields

    Reconstructing volScalarFields

        p
        T
        rho

    Reconstructing volVectorFields

        U

    Reconstructing surfaceScalarFields

        phi

Reconstructing point fields

No point fields

No lagrangian fields

Time = 0.00056

Reconstructing FV fields

    Reconstructing volScalarFields

        p
        T
        rho

    Reconstructing volVectorFields

        U

    Reconstructing surfaceScalarFields

        phi

Reconstructing point fields

No point fields

No lagrangian fields

Time = 0.00057

Reconstructing FV fields

    Reconstructing volScalarFields

        p
        T
        rho

    Reconstructing volVectorFields

        U

    Reconstructing surfaceScalarFields

        phi

Reconstructing point fields

No point fields

No lagrangian fields

Time = 0.00058

Reconstructing FV fields

    Reconstructing volScalarFields

        p
        T
        rho

    Reconstructing volVectorFields

        U

    Reconstructing surfaceScalarFields

        phi

Reconstructing point fields

No point fields

No lagrangian fields

Time = 0.00059

Reconstructing FV fields

    Reconstructing volScalarFields

        p
        T
        rho

    Reconstructing volVectorFields

        U

    Reconstructing surfaceScalarFields

        phi

Reconstructing point fields

No point fields

No lagrangian fields

Time = 0.0006

Reconstructing FV fields

    Reconstructing volScalarFields

        p
        T
        rho

    Reconstructing volVectorFields

        U

    Reconstructing surfaceScalarFields

        phi

Reconstructing point fields

No point fields

No lagrangian fields

Time = 0.00061

Reconstructing FV fields

    Reconstructing volScalarFields

        p
        T
        rho

    Reconstructing volVectorFields

        U

    Reconstructing surfaceScalarFields

        phi

Reconstructing point fields

No point fields

No lagrangian fields

Time = 0.00062

Reconstructing FV fields

    Reconstructing volScalarFields

        p
        T
        rho

    Reconstructing volVectorFields

        U

    Reconstructing surfaceScalarFields

        phi

Reconstructing point fields

No point fields

No lagrangian fields

Time = 0.00063

Reconstructing FV fields

    Reconstructing volScalarFields

        p
        T
        rho

    Reconstructing volVectorFields

        U

    Reconstructing surfaceScalarFields

        phi

Reconstructing point fields

No point fields

No lagrangian fields

Time = 0.00064

Reconstructing FV fields

    Reconstructing volScalarFields

        p
        T
        rho

    Reconstructing volVectorFields

        U

    Reconstructing surfaceScalarFields

        phi

Reconstructing point fields

No point fields

No lagrangian fields

Time = 0.00065

Reconstructing FV fields

    Reconstructing volScalarFields

        p
        T
        rho

    Reconstructing volVectorFields

        U

    Reconstructing surfaceScalarFields

        phi

Reconstructing point fields

No point fields

No lagrangian fields

Time = 0.00066

Reconstructing FV fields

    Reconstructing volScalarFields

        p
        T
        rho

    Reconstructing volVectorFields

        U

    Reconstructing surfaceScalarFields

        phi

Reconstructing point fields

No point fields

No lagrangian fields

Time = 0.00067

Reconstructing FV fields

    Reconstructing volScalarFields

        p
        T
        rho

    Reconstructing volVectorFields

        U

    Reconstructing surfaceScalarFields

        phi

Reconstructing point fields

No point fields

No lagrangian fields

Time = 0.00068

Reconstructing FV fields

    Reconstructing volScalarFields

        p
        T
        rho

    Reconstructing volVectorFields

        U

    Reconstructing surfaceScalarFields

        phi

Reconstructing point fields

No point fields

No lagrangian fields

Time = 0.00069

Reconstructing FV fields

    Reconstructing volScalarFields

        p
        T
        rho

    Reconstructing volVectorFields

        U

    Reconstructing surfaceScalarFields

        phi

Reconstructing point fields

No point fields

No lagrangian fields

Time = 0.0007

Reconstructing FV fields

    Reconstructing volScalarFields

        p
        T
        rho

    Reconstructing volVectorFields

        U

    Reconstructing surfaceScalarFields

        phi

Reconstructing point fields

No point fields

No lagrangian fields

Time = 0.00071

Reconstructing FV fields

    Reconstructing volScalarFields

        p
        T
        rho

    Reconstructing volVectorFields

        U

    Reconstructing surfaceScalarFields

        phi

Reconstructing point fields

No point fields

No lagrangian fields

Time = 0.00072

Reconstructing FV fields

    Reconstructing volScalarFields

        p
        T
        rho

    Reconstructing volVectorFields

        U

    Reconstructing surfaceScalarFields

        phi

Reconstructing point fields

No point fields

No lagrangian fields

Time = 0.00073

Reconstructing FV fields

    Reconstructing volScalarFields

        p
        T
        rho

    Reconstructing volVectorFields

        U

    Reconstructing surfaceScalarFields

        phi

Reconstructing point fields

No point fields

No lagrangian fields

Time = 0.00074

Reconstructing FV fields

    Reconstructing volScalarFields

        p
        T
        rho

    Reconstructing volVectorFields

        U

    Reconstructing surfaceScalarFields

        phi

Reconstructing point fields

No point fields

No lagrangian fields

Time = 0.00075

Reconstructing FV fields

    Reconstructing volScalarFields

        p
        T
        rho

    Reconstructing volVectorFields

        U

    Reconstructing surfaceScalarFields

        phi

Reconstructing point fields

No point fields

No lagrangian fields

Time = 0.00076

Reconstructing FV fields

    Reconstructing volScalarFields

        p
        T
        rho

    Reconstructing volVectorFields

        U

    Reconstructing surfaceScalarFields

        phi

Reconstructing point fields

No point fields

No lagrangian fields

Time = 0.00077

Reconstructing FV fields

    Reconstructing volScalarFields

        p
        T
        rho

    Reconstructing volVectorFields

        U

    Reconstructing surfaceScalarFields

        phi

Reconstructing point fields

No point fields

No lagrangian fields

Time = 0.00078

Reconstructing FV fields

    Reconstructing volScalarFields

        p
        T
        rho

    Reconstructing volVectorFields

        U

    Reconstructing surfaceScalarFields

        phi

Reconstructing point fields

No point fields

No lagrangian fields

Time = 0.00079

Reconstructing FV fields

    Reconstructing volScalarFields

        p
        T
        rho

    Reconstructing volVectorFields

        U

    Reconstructing surfaceScalarFields

        phi

Reconstructing point fields

No point fields

No lagrangian fields

Time = 0.0008

Reconstructing FV fields

    Reconstructing volScalarFields

        p
        T
        rho

    Reconstructing volVectorFields

        U

    Reconstructing surfaceScalarFields

        phi

Reconstructing point fields

No point fields

No lagrangian fields

Time = 0.00081

Reconstructing FV fields

    Reconstructing volScalarFields

        p
        T
        rho

    Reconstructing volVectorFields

        U

    Reconstructing surfaceScalarFields

        phi

Reconstructing point fields

No point fields

No lagrangian fields

Time = 0.00082

Reconstructing FV fields

    Reconstructing volScalarFields

        p
        T
        rho

    Reconstructing volVectorFields

        U

    Reconstructing surfaceScalarFields

        phi

Reconstructing point fields

No point fields

No lagrangian fields

Time = 0.00083

Reconstructing FV fields

    Reconstructing volScalarFields

        p
        T
        rho

    Reconstructing volVectorFields

        U

    Reconstructing surfaceScalarFields

        phi

Reconstructing point fields

No point fields

No lagrangian fields

Time = 0.00084

Reconstructing FV fields

    Reconstructing volScalarFields

        p
        T
        rho

    Reconstructing volVectorFields

        U

    Reconstructing surfaceScalarFields

        phi

Reconstructing point fields

No point fields

No lagrangian fields

Time = 0.00085

Reconstructing FV fields

    Reconstructing volScalarFields

        p
        T
        rho

    Reconstructing volVectorFields

        U

    Reconstructing surfaceScalarFields

        phi

Reconstructing point fields

No point fields

No lagrangian fields

Time = 0.00086

Reconstructing FV fields

    Reconstructing volScalarFields

        p
        T
        rho

    Reconstructing volVectorFields

        U

    Reconstructing surfaceScalarFields

        phi

Reconstructing point fields

No point fields

No lagrangian fields

Time = 0.00087

Reconstructing FV fields

    Reconstructing volScalarFields

        p
        T
        rho

    Reconstructing volVectorFields

        U

    Reconstructing surfaceScalarFields

        phi

Reconstructing point fields

No point fields

No lagrangian fields

Time = 0.00088

Reconstructing FV fields

    Reconstructing volScalarFields

        p
        T
        rho

    Reconstructing volVectorFields

        U

    Reconstructing surfaceScalarFields

        phi

Reconstructing point fields

No point fields

No lagrangian fields

Time = 0.00089

Reconstructing FV fields

    Reconstructing volScalarFields

        p
        T
        rho

    Reconstructing volVectorFields

        U

    Reconstructing surfaceScalarFields

        phi

Reconstructing point fields

No point fields

No lagrangian fields

Time = 0.0009

Reconstructing FV fields

    Reconstructing volScalarFields

        p
        T
        rho

    Reconstructing volVectorFields

        U

    Reconstructing surfaceScalarFields

        phi

Reconstructing point fields

No point fields

No lagrangian fields

Time = 0.00091

Reconstructing FV fields

    Reconstructing volScalarFields

        p
        T
        rho

    Reconstructing volVectorFields

        U

    Reconstructing surfaceScalarFields

        phi

Reconstructing point fields

No point fields

No lagrangian fields

Time = 0.00092

Reconstructing FV fields

    Reconstructing volScalarFields

        p
        T
        rho

    Reconstructing volVectorFields

        U

    Reconstructing surfaceScalarFields

        phi

Reconstructing point fields

No point fields

No lagrangian fields

Time = 0.00093

Reconstructing FV fields

    Reconstructing volScalarFields

        p
        T
        rho

    Reconstructing volVectorFields

        U

    Reconstructing surfaceScalarFields

        phi

Reconstructing point fields

No point fields

No lagrangian fields

Time = 0.00094

Reconstructing FV fields

    Reconstructing volScalarFields

        p
        T
        rho

    Reconstructing volVectorFields

        U

    Reconstructing surfaceScalarFields

        phi

Reconstructing point fields

No point fields

No lagrangian fields

Time = 0.00095

Reconstructing FV fields

    Reconstructing volScalarFields

        p
        T
        rho

    Reconstructing volVectorFields

        U

    Reconstructing surfaceScalarFields

        phi

Reconstructing point fields

No point fields

No lagrangian fields

Time = 0.00096

Reconstructing FV fields

    Reconstructing volScalarFields

        p
        T
        rho

    Reconstructing volVectorFields

        U

    Reconstructing surfaceScalarFields

        phi

Reconstructing point fields

No point fields

No lagrangian fields

Time = 0.00097

Reconstructing FV fields

    Reconstructing volScalarFields

        p
        T
        rho

    Reconstructing volVectorFields

        U

    Reconstructing surfaceScalarFields

        phi

Reconstructing point fields

No point fields

No lagrangian fields

Time = 0.00098

Reconstructing FV fields

    Reconstructing volScalarFields

        p
        T
        rho

    Reconstructing volVectorFields

        U

    Reconstructing surfaceScalarFields

        phi

Reconstructing point fields

No point fields

No lagrangian fields

Time = 0.00099

Reconstructing FV fields

    Reconstructing volScalarFields

        p
        T
        rho

    Reconstructing volVectorFields

        U

    Reconstructing surfaceScalarFields

        phi

Reconstructing point fields

No point fields

No lagrangian fields

Time = 0.001

Reconstructing FV fields

    Reconstructing volScalarFields

        p
        T
        rho

    Reconstructing volVectorFields

        U

    Reconstructing surfaceScalarFields

        phi

Reconstructing point fields

No point fields

No lagrangian fields

Time = 0.00101

Reconstructing FV fields

    Reconstructing volScalarFields

        p
        T
        rho

    Reconstructing volVectorFields

        U

    Reconstructing surfaceScalarFields

        phi

Reconstructing point fields

No point fields

No lagrangian fields

Time = 0.00102

Reconstructing FV fields

    Reconstructing volScalarFields

        p
        T
        rho

    Reconstructing volVectorFields

        U

    Reconstructing surfaceScalarFields

        phi

Reconstructing point fields

No point fields

No lagrangian fields

Time = 0.00103

Reconstructing FV fields

    Reconstructing volScalarFields

        p
        T
        rho

    Reconstructing volVectorFields

        U

    Reconstructing surfaceScalarFields

        phi

Reconstructing point fields

No point fields

No lagrangian fields

Time = 0.00104

Reconstructing FV fields

    Reconstructing volScalarFields

        p
        T
        rho

    Reconstructing volVectorFields

        U

    Reconstructing surfaceScalarFields

        phi

Reconstructing point fields

No point fields

No lagrangian fields

Time = 0.00105

Reconstructing FV fields

    Reconstructing volScalarFields

        p
        T
        rho

    Reconstructing volVectorFields

        U

    Reconstructing surfaceScalarFields

        phi

Reconstructing point fields

No point fields

No lagrangian fields

Time = 0.00106

Reconstructing FV fields

    Reconstructing volScalarFields

        p
        T
        rho

    Reconstructing volVectorFields

        U

    Reconstructing surfaceScalarFields

        phi

Reconstructing point fields

No point fields

No lagrangian fields

Time = 0.00107

Reconstructing FV fields

    Reconstructing volScalarFields

        p
        T
        rho

    Reconstructing volVectorFields

        U

    Reconstructing surfaceScalarFields

        phi

Reconstructing point fields

No point fields

No lagrangian fields

Time = 0.00108

Reconstructing FV fields

    Reconstructing volScalarFields

        p
        T
        rho

    Reconstructing volVectorFields

        U

    Reconstructing surfaceScalarFields

        phi

Reconstructing point fields

No point fields

No lagrangian fields

Time = 0.00109

Reconstructing FV fields

    Reconstructing volScalarFields

        p
        T
        rho

    Reconstructing volVectorFields

        U

    Reconstructing surfaceScalarFields

        phi

Reconstructing point fields

No point fields

No lagrangian fields

Time = 0.0011

Reconstructing FV fields

    Reconstructing volScalarFields

        p
        T
        rho

    Reconstructing volVectorFields

        U

    Reconstructing surfaceScalarFields

        phi

Reconstructing point fields

No point fields

No lagrangian fields

Time = 0.00111

Reconstructing FV fields

    Reconstructing volScalarFields

        p
        T
        rho

    Reconstructing volVectorFields

        U

    Reconstructing surfaceScalarFields

        phi

Reconstructing point fields

No point fields

No lagrangian fields

Time = 0.00112

Reconstructing FV fields

    Reconstructing volScalarFields

        p
        T
        rho

    Reconstructing volVectorFields

        U

    Reconstructing surfaceScalarFields

        phi

Reconstructing point fields

No point fields

No lagrangian fields

Time = 0.00113

Reconstructing FV fields

    Reconstructing volScalarFields

        p
        T
        rho

    Reconstructing volVectorFields

        U

    Reconstructing surfaceScalarFields

        phi

Reconstructing point fields

No point fields

No lagrangian fields

Time = 0.00114

Reconstructing FV fields

    Reconstructing volScalarFields

        p
        T
        rho

    Reconstructing volVectorFields

        U

    Reconstructing surfaceScalarFields

        phi

Reconstructing point fields

No point fields

No lagrangian fields

Time = 0.00115

Reconstructing FV fields

    Reconstructing volScalarFields

        p
        T
        rho

    Reconstructing volVectorFields

        U

    Reconstructing surfaceScalarFields

        phi

Reconstructing point fields

No point fields

No lagrangian fields

Time = 0.00116

Reconstructing FV fields

    Reconstructing volScalarFields

        p
        T
        rho

    Reconstructing volVectorFields

        U

    Reconstructing surfaceScalarFields

        phi

Reconstructing point fields

No point fields

No lagrangian fields

Time = 0.00117

Reconstructing FV fields

    Reconstructing volScalarFields

        p
        T
        rho

    Reconstructing volVectorFields

        U

    Reconstructing surfaceScalarFields

        phi

Reconstructing point fields

No point fields

No lagrangian fields

Time = 0.00118

Reconstructing FV fields

    Reconstructing volScalarFields

        p
        T
        rho

    Reconstructing volVectorFields

        U

    Reconstructing surfaceScalarFields

        phi

Reconstructing point fields

No point fields

No lagrangian fields

Time = 0.00119

Reconstructing FV fields

    Reconstructing volScalarFields

        p
        T
        rho

    Reconstructing volVectorFields

        U

    Reconstructing surfaceScalarFields

        phi

Reconstructing point fields

No point fields

No lagrangian fields

Time = 0.0012

Reconstructing FV fields

    Reconstructing volScalarFields

        p
        T
        rho

    Reconstructing volVectorFields

        U

    Reconstructing surfaceScalarFields

        phi

Reconstructing point fields

No point fields

No lagrangian fields

Time = 0.00121

Reconstructing FV fields

    Reconstructing volScalarFields

        p
        T
        rho

    Reconstructing volVectorFields

        U

    Reconstructing surfaceScalarFields

        phi

Reconstructing point fields

No point fields

No lagrangian fields

Time = 0.00122

Reconstructing FV fields

    Reconstructing volScalarFields

        p
        T
        rho

    Reconstructing volVectorFields

        U

    Reconstructing surfaceScalarFields

        phi

Reconstructing point fields

No point fields

No lagrangian fields

Time = 0.00123

Reconstructing FV fields

    Reconstructing volScalarFields

        p
        T
        rho

    Reconstructing volVectorFields

        U

    Reconstructing surfaceScalarFields

        phi

Reconstructing point fields

No point fields

No lagrangian fields

Time = 0.00124

Reconstructing FV fields

    Reconstructing volScalarFields

        p
        T
        rho

    Reconstructing volVectorFields

        U

    Reconstructing surfaceScalarFields

        phi

Reconstructing point fields

No point fields

No lagrangian fields

Time = 0.00125

Reconstructing FV fields

    Reconstructing volScalarFields

        p
        T
        rho

    Reconstructing volVectorFields

        U

    Reconstructing surfaceScalarFields

        phi

Reconstructing point fields

No point fields

No lagrangian fields

Time = 0.00126

Reconstructing FV fields

    Reconstructing volScalarFields

        p
        T
        rho

    Reconstructing volVectorFields

        U

    Reconstructing surfaceScalarFields

        phi

Reconstructing point fields

No point fields

No lagrangian fields

Time = 0.00127

Reconstructing FV fields

    Reconstructing volScalarFields

        p
        T
        rho

    Reconstructing volVectorFields

        U

    Reconstructing surfaceScalarFields

        phi

Reconstructing point fields

No point fields

No lagrangian fields

Time = 0.00128

Reconstructing FV fields

    Reconstructing volScalarFields

        p
        T
        rho

    Reconstructing volVectorFields

        U

    Reconstructing surfaceScalarFields

        phi

Reconstructing point fields

No point fields

No lagrangian fields

Time = 0.00129

Reconstructing FV fields

    Reconstructing volScalarFields

        p
        T
        rho

    Reconstructing volVectorFields

        U

    Reconstructing surfaceScalarFields

        phi

Reconstructing point fields

No point fields

No lagrangian fields

Time = 0.0013

Reconstructing FV fields

    Reconstructing volScalarFields

        p
        T
        rho

    Reconstructing volVectorFields

        U

    Reconstructing surfaceScalarFields

        phi

Reconstructing point fields

No point fields

No lagrangian fields

Time = 0.00131

Reconstructing FV fields

    Reconstructing volScalarFields

        p
        T
        rho

    Reconstructing volVectorFields

        U

    Reconstructing surfaceScalarFields

        phi

Reconstructing point fields

No point fields

No lagrangian fields

Time = 0.00132

Reconstructing FV fields

    Reconstructing volScalarFields

        p
        T
        rho

    Reconstructing volVectorFields

        U

    Reconstructing surfaceScalarFields

        phi

Reconstructing point fields

No point fields

No lagrangian fields

Time = 0.00133

Reconstructing FV fields

    Reconstructing volScalarFields

        p
        T
        rho

    Reconstructing volVectorFields

        U

    Reconstructing surfaceScalarFields

        phi

Reconstructing point fields

No point fields

No lagrangian fields

Time = 0.00134

Reconstructing FV fields

    Reconstructing volScalarFields

        p
        T
        rho

    Reconstructing volVectorFields

        U

    Reconstructing surfaceScalarFields

        phi

Reconstructing point fields

No point fields

No lagrangian fields

Time = 0.00135

Reconstructing FV fields

    Reconstructing volScalarFields

        p
        T
        rho

    Reconstructing volVectorFields

        U

    Reconstructing surfaceScalarFields

        phi

Reconstructing point fields

No point fields

No lagrangian fields

Time = 0.00136

Reconstructing FV fields

    Reconstructing volScalarFields

        p
        T
        rho

    Reconstructing volVectorFields

        U

    Reconstructing surfaceScalarFields

        phi

Reconstructing point fields

No point fields

No lagrangian fields

Time = 0.00137

Reconstructing FV fields

    Reconstructing volScalarFields

        p
        T
        rho

    Reconstructing volVectorFields

        U

    Reconstructing surfaceScalarFields

        phi

Reconstructing point fields

No point fields

No lagrangian fields

Time = 0.00138

Reconstructing FV fields

    Reconstructing volScalarFields

        p
        T
        rho

    Reconstructing volVectorFields

        U

    Reconstructing surfaceScalarFields

        phi

Reconstructing point fields

No point fields

No lagrangian fields

Time = 0.00139

Reconstructing FV fields

    Reconstructing volScalarFields

        p
        T
        rho

    Reconstructing volVectorFields

        U

    Reconstructing surfaceScalarFields

        phi

Reconstructing point fields

No point fields

No lagrangian fields

Time = 0.0014

Reconstructing FV fields

    Reconstructing volScalarFields

        p
        T
        rho

    Reconstructing volVectorFields

        U

    Reconstructing surfaceScalarFields

        phi

Reconstructing point fields

No point fields

No lagrangian fields

Time = 0.00141

Reconstructing FV fields

    Reconstructing volScalarFields

        p
        T
        rho

    Reconstructing volVectorFields

        U

    Reconstructing surfaceScalarFields

        phi

Reconstructing point fields

No point fields

No lagrangian fields

Time = 0.00142

Reconstructing FV fields

    Reconstructing volScalarFields

        p
        T
        rho

    Reconstructing volVectorFields

        U

    Reconstructing surfaceScalarFields

        phi

Reconstructing point fields

No point fields

No lagrangian fields

Time = 0.00143

Reconstructing FV fields

    Reconstructing volScalarFields

        p
        T
        rho

    Reconstructing volVectorFields

        U

    Reconstructing surfaceScalarFields

        phi

Reconstructing point fields

No point fields

No lagrangian fields

Time = 0.00144

Reconstructing FV fields

    Reconstructing volScalarFields

        p
        T
        rho

    Reconstructing volVectorFields

        U

    Reconstructing surfaceScalarFields

        phi

Reconstructing point fields

No point fields

No lagrangian fields

Time = 0.00145

Reconstructing FV fields

    Reconstructing volScalarFields

        p
        T
        rho

    Reconstructing volVectorFields

        U

    Reconstructing surfaceScalarFields

        phi

Reconstructing point fields

No point fields

No lagrangian fields

Time = 0.00146

Reconstructing FV fields

    Reconstructing volScalarFields

        p
        T
        rho

    Reconstructing volVectorFields

        U

    Reconstructing surfaceScalarFields

        phi

Reconstructing point fields

No point fields

No lagrangian fields

Time = 0.00147

Reconstructing FV fields

    Reconstructing volScalarFields

        p
        T
        rho

    Reconstructing volVectorFields

        U

    Reconstructing surfaceScalarFields

        phi

Reconstructing point fields

No point fields

No lagrangian fields

Time = 0.00148

Reconstructing FV fields

    Reconstructing volScalarFields

        p
        T
        rho

    Reconstructing volVectorFields

        U

    Reconstructing surfaceScalarFields

        phi

Reconstructing point fields

No point fields

No lagrangian fields

Time = 0.00149

Reconstructing FV fields

    Reconstructing volScalarFields

        p
        T
        rho

    Reconstructing volVectorFields

        U

    Reconstructing surfaceScalarFields

        phi

Reconstructing point fields

No point fields

No lagrangian fields

Time = 0.0015

Reconstructing FV fields

    Reconstructing volScalarFields

        p
        T
        rho

    Reconstructing volVectorFields

        U

    Reconstructing surfaceScalarFields

        phi

Reconstructing point fields

No point fields

No lagrangian fields

Time = 0.00151

Reconstructing FV fields

    Reconstructing volScalarFields

        p
        T
        rho

    Reconstructing volVectorFields

        U

    Reconstructing surfaceScalarFields

        phi

Reconstructing point fields

No point fields

No lagrangian fields

Time = 0.00152

Reconstructing FV fields

    Reconstructing volScalarFields

        p
        T
        rho

    Reconstructing volVectorFields

        U

    Reconstructing surfaceScalarFields

        phi

Reconstructing point fields

No point fields

No lagrangian fields

Time = 0.00153

Reconstructing FV fields

    Reconstructing volScalarFields

        p
        T
        rho

    Reconstructing volVectorFields

        U

    Reconstructing surfaceScalarFields

        phi

Reconstructing point fields

No point fields

No lagrangian fields

Time = 0.00154

Reconstructing FV fields

    Reconstructing volScalarFields

        p
        T
        rho

    Reconstructing volVectorFields

        U

    Reconstructing surfaceScalarFields

        phi

Reconstructing point fields

No point fields

No lagrangian fields

Time = 0.00155

Reconstructing FV fields

    Reconstructing volScalarFields

        p
        T
        rho

    Reconstructing volVectorFields

        U

    Reconstructing surfaceScalarFields

        phi

Reconstructing point fields

No point fields

No lagrangian fields

Time = 0.00156

Reconstructing FV fields

    Reconstructing volScalarFields

        p
        T
        rho

    Reconstructing volVectorFields

        U

    Reconstructing surfaceScalarFields

        phi

Reconstructing point fields

No point fields

No lagrangian fields

Time = 0.00157

Reconstructing FV fields

    Reconstructing volScalarFields

        p
        T
        rho

    Reconstructing volVectorFields

        U

    Reconstructing surfaceScalarFields

        phi

Reconstructing point fields

No point fields

No lagrangian fields

Time = 0.00158

Reconstructing FV fields

    Reconstructing volScalarFields

        p
        T
        rho

    Reconstructing volVectorFields

        U

    Reconstructing surfaceScalarFields

        phi

Reconstructing point fields

No point fields

No lagrangian fields

Time = 0.00159

Reconstructing FV fields

    Reconstructing volScalarFields

        p
        T
        rho

    Reconstructing volVectorFields

        U

    Reconstructing surfaceScalarFields

        phi

Reconstructing point fields

No point fields

No lagrangian fields

Time = 0.0016

Reconstructing FV fields

    Reconstructing volScalarFields

        p
        T
        rho

    Reconstructing volVectorFields

        U

    Reconstructing surfaceScalarFields

        phi

Reconstructing point fields

No point fields

No lagrangian fields

Time = 0.00161

Reconstructing FV fields

    Reconstructing volScalarFields

        p
        T
        rho

    Reconstructing volVectorFields

        U

    Reconstructing surfaceScalarFields

        phi

Reconstructing point fields

No point fields

No lagrangian fields

Time = 0.00162

Reconstructing FV fields

    Reconstructing volScalarFields

        p
        T
        rho

    Reconstructing volVectorFields

        U

    Reconstructing surfaceScalarFields

        phi

Reconstructing point fields

No point fields

No lagrangian fields

Time = 0.00163

Reconstructing FV fields

    Reconstructing volScalarFields

        p
        T
        rho

    Reconstructing volVectorFields

        U

    Reconstructing surfaceScalarFields

        phi

Reconstructing point fields

No point fields

No lagrangian fields

Time = 0.00164

Reconstructing FV fields

    Reconstructing volScalarFields

        p
        T
        rho

    Reconstructing volVectorFields

        U

    Reconstructing surfaceScalarFields

        phi

Reconstructing point fields

No point fields

No lagrangian fields

Time = 0.00165

Reconstructing FV fields

    Reconstructing volScalarFields

        p
        T
        rho

    Reconstructing volVectorFields

        U

    Reconstructing surfaceScalarFields

        phi

Reconstructing point fields

No point fields

No lagrangian fields

Time = 0.00166

Reconstructing FV fields

    Reconstructing volScalarFields

        p
        T
        rho

    Reconstructing volVectorFields

        U

    Reconstructing surfaceScalarFields

        phi

Reconstructing point fields

No point fields

No lagrangian fields

Time = 0.00167

Reconstructing FV fields

    Reconstructing volScalarFields

        p
        T
        rho

    Reconstructing volVectorFields

        U

    Reconstructing surfaceScalarFields

        phi

Reconstructing point fields

No point fields

No lagrangian fields

Time = 0.00168

Reconstructing FV fields

    Reconstructing volScalarFields

        p
        T
        rho

    Reconstructing volVectorFields

        U

    Reconstructing surfaceScalarFields

        phi

Reconstructing point fields

No point fields

No lagrangian fields

Time = 0.00169

Reconstructing FV fields

    Reconstructing volScalarFields

        p
        T
        rho

    Reconstructing volVectorFields

        U

    Reconstructing surfaceScalarFields

        phi

Reconstructing point fields

No point fields

No lagrangian fields

Time = 0.0017

Reconstructing FV fields

    Reconstructing volScalarFields

        p
        T
        rho

    Reconstructing volVectorFields

        U

    Reconstructing surfaceScalarFields

        phi

Reconstructing point fields

No point fields

No lagrangian fields

Time = 0.00171

Reconstructing FV fields

    Reconstructing volScalarFields

        p
        T
        rho

    Reconstructing volVectorFields

        U

    Reconstructing surfaceScalarFields

        phi

Reconstructing point fields

No point fields

No lagrangian fields

Time = 0.00172

Reconstructing FV fields

    Reconstructing volScalarFields

        p
        T
        rho

    Reconstructing volVectorFields

        U

    Reconstructing surfaceScalarFields

        phi

Reconstructing point fields

No point fields

No lagrangian fields

Time = 0.00173

Reconstructing FV fields

    Reconstructing volScalarFields

        p
        T
        rho

    Reconstructing volVectorFields

        U

    Reconstructing surfaceScalarFields

        phi

Reconstructing point fields

No point fields

No lagrangian fields

Time = 0.00174

Reconstructing FV fields

    Reconstructing volScalarFields

        p
        T
        rho

    Reconstructing volVectorFields

        U

    Reconstructing surfaceScalarFields

        phi

Reconstructing point fields

No point fields

No lagrangian fields

Time = 0.00175

Reconstructing FV fields

    Reconstructing volScalarFields

        p
        T
        rho

    Reconstructing volVectorFields

        U

    Reconstructing surfaceScalarFields

        phi

Reconstructing point fields

No point fields

No lagrangian fields

Time = 0.00176

Reconstructing FV fields

    Reconstructing volScalarFields

        p
        T
        rho

    Reconstructing volVectorFields

        U

    Reconstructing surfaceScalarFields

        phi

Reconstructing point fields

No point fields

No lagrangian fields

Time = 0.00177

Reconstructing FV fields

    Reconstructing volScalarFields

        p
        T
        rho

    Reconstructing volVectorFields

        U

    Reconstructing surfaceScalarFields

        phi

Reconstructing point fields

No point fields

No lagrangian fields

Time = 0.00178

Reconstructing FV fields

    Reconstructing volScalarFields

        p
        T
        rho

    Reconstructing volVectorFields

        U

    Reconstructing surfaceScalarFields

        phi

Reconstructing point fields

No point fields

No lagrangian fields

Time = 0.00179

Reconstructing FV fields

    Reconstructing volScalarFields

        p
        T
        rho

    Reconstructing volVectorFields

        U

    Reconstructing surfaceScalarFields

        phi

Reconstructing point fields

No point fields

No lagrangian fields

Time = 0.0018

Reconstructing FV fields

    Reconstructing volScalarFields

        p
        T
        rho

    Reconstructing volVectorFields

        U

    Reconstructing surfaceScalarFields

        phi

Reconstructing point fields

No point fields

No lagrangian fields

Time = 0.00181

Reconstructing FV fields

    Reconstructing volScalarFields

        p
        T
        rho

    Reconstructing volVectorFields

        U

    Reconstructing surfaceScalarFields

        phi

Reconstructing point fields

No point fields

No lagrangian fields

Time = 0.00182

Reconstructing FV fields

    Reconstructing volScalarFields

        p
        T
        rho

    Reconstructing volVectorFields

        U

    Reconstructing surfaceScalarFields

        phi

Reconstructing point fields

No point fields

No lagrangian fields

Time = 0.00183

Reconstructing FV fields

    Reconstructing volScalarFields

        p
        T
        rho

    Reconstructing volVectorFields

        U

    Reconstructing surfaceScalarFields

        phi

Reconstructing point fields

No point fields

No lagrangian fields

Time = 0.00184

Reconstructing FV fields

    Reconstructing volScalarFields

        p
        T
        rho

    Reconstructing volVectorFields

        U

    Reconstructing surfaceScalarFields

        phi

Reconstructing point fields

No point fields

No lagrangian fields

Time = 0.00185

Reconstructing FV fields

    Reconstructing volScalarFields

        p
        T
        rho

    Reconstructing volVectorFields

        U

    Reconstructing surfaceScalarFields

        phi

Reconstructing point fields

No point fields

No lagrangian fields

Time = 0.00186

Reconstructing FV fields

    Reconstructing volScalarFields

        p
        T
        rho

    Reconstructing volVectorFields

        U

    Reconstructing surfaceScalarFields

        phi

Reconstructing point fields

No point fields

No lagrangian fields

Time = 0.00187

Reconstructing FV fields

    Reconstructing volScalarFields

        p
        T
        rho

    Reconstructing volVectorFields

        U

    Reconstructing surfaceScalarFields

        phi

Reconstructing point fields

No point fields

No lagrangian fields

Time = 0.00188

Reconstructing FV fields

    Reconstructing volScalarFields

        p
        T
        rho

    Reconstructing volVectorFields

        U

    Reconstructing surfaceScalarFields

        phi

Reconstructing point fields

No point fields

No lagrangian fields

Time = 0.00189

Reconstructing FV fields

    Reconstructing volScalarFields

        p
        T
        rho

    Reconstructing volVectorFields

        U

    Reconstructing surfaceScalarFields

        phi

Reconstructing point fields

No point fields

No lagrangian fields

Time = 0.0019

Reconstructing FV fields

    Reconstructing volScalarFields

        p
        T
        rho

    Reconstructing volVectorFields

        U

    Reconstructing surfaceScalarFields

        phi

Reconstructing point fields

No point fields

No lagrangian fields

Time = 0.00191

Reconstructing FV fields

    Reconstructing volScalarFields

        p
        T
        rho

    Reconstructing volVectorFields

        U

    Reconstructing surfaceScalarFields

        phi

Reconstructing point fields

No point fields

No lagrangian fields

Time = 0.00192

Reconstructing FV fields

    Reconstructing volScalarFields

        p
        T
        rho

    Reconstructing volVectorFields

        U

    Reconstructing surfaceScalarFields

        phi

Reconstructing point fields

No point fields

No lagrangian fields

Time = 0.00193

Reconstructing FV fields

    Reconstructing volScalarFields

        p
        T
        rho

    Reconstructing volVectorFields

        U

    Reconstructing surfaceScalarFields

        phi

Reconstructing point fields

No point fields

No lagrangian fields

Time = 0.00194

Reconstructing FV fields

    Reconstructing volScalarFields

        p
        T
        rho

    Reconstructing volVectorFields

        U

    Reconstructing surfaceScalarFields

        phi

Reconstructing point fields

No point fields

No lagrangian fields

Time = 0.00195

Reconstructing FV fields

    Reconstructing volScalarFields

        p
        T
        rho

    Reconstructing volVectorFields

        U

    Reconstructing surfaceScalarFields

        phi

Reconstructing point fields

No point fields

No lagrangian fields

Time = 0.00196

Reconstructing FV fields

    Reconstructing volScalarFields

        p
        T
        rho

    Reconstructing volVectorFields

        U

    Reconstructing surfaceScalarFields

        phi

Reconstructing point fields

No point fields

No lagrangian fields

Time = 0.00197

Reconstructing FV fields

    Reconstructing volScalarFields

        p
        T
        rho

    Reconstructing volVectorFields

        U

    Reconstructing surfaceScalarFields

        phi

Reconstructing point fields

No point fields

No lagrangian fields

Time = 0.00198

Reconstructing FV fields

    Reconstructing volScalarFields

        p
        T
        rho

    Reconstructing volVectorFields

        U

    Reconstructing surfaceScalarFields

        phi

Reconstructing point fields

No point fields

No lagrangian fields

Time = 0.00199

Reconstructing FV fields

    Reconstructing volScalarFields

        p
        T
        rho

    Reconstructing volVectorFields

        U

    Reconstructing surfaceScalarFields

        phi

Reconstructing point fields

No point fields

No lagrangian fields

Time = 0.002

Reconstructing FV fields

    Reconstructing volScalarFields

        p
        T
        rho

    Reconstructing volVectorFields

        U

    Reconstructing surfaceScalarFields

        phi

Reconstructing point fields

No point fields

No lagrangian fields

Time = 0.00201

Reconstructing FV fields

    Reconstructing volScalarFields

        p
        T
        rho

    Reconstructing volVectorFields

        U

    Reconstructing surfaceScalarFields

        phi

Reconstructing point fields

No point fields

No lagrangian fields

Time = 0.00202

Reconstructing FV fields

    Reconstructing volScalarFields

        p
        T
        rho

    Reconstructing volVectorFields

        U

    Reconstructing surfaceScalarFields

        phi

Reconstructing point fields

No point fields

No lagrangian fields

Time = 0.00203

Reconstructing FV fields

    Reconstructing volScalarFields

        p
        T
        rho

    Reconstructing volVectorFields

        U

    Reconstructing surfaceScalarFields

        phi

Reconstructing point fields

No point fields

No lagrangian fields

Time = 0.00204

Reconstructing FV fields

    Reconstructing volScalarFields

        p
        T
        rho

    Reconstructing volVectorFields

        U

    Reconstructing surfaceScalarFields

        phi

Reconstructing point fields

No point fields

No lagrangian fields

Time = 0.00205

Reconstructing FV fields

    Reconstructing volScalarFields

        p
        T
        rho

    Reconstructing volVectorFields

        U

    Reconstructing surfaceScalarFields

        phi

Reconstructing point fields

No point fields

No lagrangian fields

Time = 0.00206

Reconstructing FV fields

    Reconstructing volScalarFields

        p
        T
        rho

    Reconstructing volVectorFields

        U

    Reconstructing surfaceScalarFields

        phi

Reconstructing point fields

No point fields

No lagrangian fields

Time = 0.00207

Reconstructing FV fields

    Reconstructing volScalarFields

        p
        T
        rho

    Reconstructing volVectorFields

        U

    Reconstructing surfaceScalarFields

        phi

Reconstructing point fields

No point fields

No lagrangian fields

Time = 0.00208

Reconstructing FV fields

    Reconstructing volScalarFields

        p
        T
        rho

    Reconstructing volVectorFields

        U

    Reconstructing surfaceScalarFields

        phi

Reconstructing point fields

No point fields

No lagrangian fields

Time = 0.00209

Reconstructing FV fields

    Reconstructing volScalarFields

        p
        T
        rho

    Reconstructing volVectorFields

        U

    Reconstructing surfaceScalarFields

        phi

Reconstructing point fields

No point fields

No lagrangian fields

Time = 0.0021

Reconstructing FV fields

    Reconstructing volScalarFields

        p
        T
        rho

    Reconstructing volVectorFields

        U

    Reconstructing surfaceScalarFields

        phi

Reconstructing point fields

No point fields

No lagrangian fields

Time = 0.00211

Reconstructing FV fields

    Reconstructing volScalarFields

        p
        T
        rho

    Reconstructing volVectorFields

        U

    Reconstructing surfaceScalarFields

        phi

Reconstructing point fields

No point fields

No lagrangian fields

Time = 0.00212

Reconstructing FV fields

    Reconstructing volScalarFields

        p
        T
        rho

    Reconstructing volVectorFields

        U

    Reconstructing surfaceScalarFields

        phi

Reconstructing point fields

No point fields

No lagrangian fields

Time = 0.00213

Reconstructing FV fields

    Reconstructing volScalarFields

        p
        T
        rho

    Reconstructing volVectorFields

        U

    Reconstructing surfaceScalarFields

        phi

Reconstructing point fields

No point fields

No lagrangian fields

Time = 0.00214

Reconstructing FV fields

    Reconstructing volScalarFields

        p
        T
        rho

    Reconstructing volVectorFields

        U

    Reconstructing surfaceScalarFields

        phi

Reconstructing point fields

No point fields

No lagrangian fields

Time = 0.00215

Reconstructing FV fields

    Reconstructing volScalarFields

        p
        T
        rho

    Reconstructing volVectorFields

        U

    Reconstructing surfaceScalarFields

        phi

Reconstructing point fields

No point fields

No lagrangian fields

Time = 0.00216

Reconstructing FV fields

    Reconstructing volScalarFields

        p
        T
        rho

    Reconstructing volVectorFields

        U

    Reconstructing surfaceScalarFields

        phi

Reconstructing point fields

No point fields

No lagrangian fields

Time = 0.00217

Reconstructing FV fields

    Reconstructing volScalarFields

        p
        T
        rho

    Reconstructing volVectorFields

        U

    Reconstructing surfaceScalarFields

        phi

Reconstructing point fields

No point fields

No lagrangian fields

Time = 0.00218

Reconstructing FV fields

    Reconstructing volScalarFields

        p
        T
        rho

    Reconstructing volVectorFields

        U

    Reconstructing surfaceScalarFields

        phi

Reconstructing point fields

No point fields

No lagrangian fields

Time = 0.00219

Reconstructing FV fields

    Reconstructing volScalarFields

        p
        T
        rho

    Reconstructing volVectorFields

        U

    Reconstructing surfaceScalarFields

        phi

Reconstructing point fields

No point fields

No lagrangian fields

Time = 0.0022

Reconstructing FV fields

    Reconstructing volScalarFields

        p
        T
        rho

    Reconstructing volVectorFields

        U

    Reconstructing surfaceScalarFields

        phi

Reconstructing point fields

No point fields

No lagrangian fields

Time = 0.00221

Reconstructing FV fields

    Reconstructing volScalarFields

        p
        T
        rho

    Reconstructing volVectorFields

        U

    Reconstructing surfaceScalarFields

        phi

Reconstructing point fields

No point fields

No lagrangian fields

Time = 0.00222

Reconstructing FV fields

    Reconstructing volScalarFields

        p
        T
        rho

    Reconstructing volVectorFields

        U

    Reconstructing surfaceScalarFields

        phi

Reconstructing point fields

No point fields

No lagrangian fields

Time = 0.00223

Reconstructing FV fields

    Reconstructing volScalarFields

        p
        T
        rho

    Reconstructing volVectorFields

        U

    Reconstructing surfaceScalarFields

        phi

Reconstructing point fields

No point fields

No lagrangian fields

Time = 0.00224

Reconstructing FV fields

    Reconstructing volScalarFields

        p
        T
        rho

    Reconstructing volVectorFields

        U

    Reconstructing surfaceScalarFields

        phi

Reconstructing point fields

No point fields

No lagrangian fields

Time = 0.00225

Reconstructing FV fields

    Reconstructing volScalarFields

        p
        T
        rho

    Reconstructing volVectorFields

        U

    Reconstructing surfaceScalarFields

        phi

Reconstructing point fields

No point fields

No lagrangian fields

Time = 0.00226

Reconstructing FV fields

    Reconstructing volScalarFields

        p
        T
        rho

    Reconstructing volVectorFields

        U

    Reconstructing surfaceScalarFields

        phi

Reconstructing point fields

No point fields

No lagrangian fields

Time = 0.00227

Reconstructing FV fields

    Reconstructing volScalarFields

        p
        T
        rho

    Reconstructing volVectorFields

        U

    Reconstructing surfaceScalarFields

        phi

Reconstructing point fields

No point fields

No lagrangian fields

Time = 0.00228

Reconstructing FV fields

    Reconstructing volScalarFields

        p
        T
        rho

    Reconstructing volVectorFields

        U

    Reconstructing surfaceScalarFields

        phi

Reconstructing point fields

No point fields

No lagrangian fields

Time = 0.00229

Reconstructing FV fields

    Reconstructing volScalarFields

        p
        T
        rho

    Reconstructing volVectorFields

        U

    Reconstructing surfaceScalarFields

        phi

Reconstructing point fields

No point fields

No lagrangian fields

Time = 0.0023

Reconstructing FV fields

    Reconstructing volScalarFields

        p
        T
        rho

    Reconstructing volVectorFields

        U

    Reconstructing surfaceScalarFields

        phi

Reconstructing point fields

No point fields

No lagrangian fields

Time = 0.00231

Reconstructing FV fields

    Reconstructing volScalarFields

        p
        T
        rho

    Reconstructing volVectorFields

        U

    Reconstructing surfaceScalarFields

        phi

Reconstructing point fields

No point fields

No lagrangian fields

Time = 0.00232

Reconstructing FV fields

    Reconstructing volScalarFields

        p
        T
        rho

    Reconstructing volVectorFields

        U

    Reconstructing surfaceScalarFields

        phi

Reconstructing point fields

No point fields

No lagrangian fields

Time = 0.00233

Reconstructing FV fields

    Reconstructing volScalarFields

        p
        T
        rho

    Reconstructing volVectorFields

        U

    Reconstructing surfaceScalarFields

        phi

Reconstructing point fields

No point fields

No lagrangian fields

Time = 0.00234

Reconstructing FV fields

    Reconstructing volScalarFields

        p
        T
        rho

    Reconstructing volVectorFields

        U

    Reconstructing surfaceScalarFields

        phi

Reconstructing point fields

No point fields

No lagrangian fields

Time = 0.00235

Reconstructing FV fields

    Reconstructing volScalarFields

        p
        T
        rho

    Reconstructing volVectorFields

        U

    Reconstructing surfaceScalarFields

        phi

Reconstructing point fields

No point fields

No lagrangian fields

Time = 0.00236

Reconstructing FV fields

    Reconstructing volScalarFields

        p
        T
        rho

    Reconstructing volVectorFields

        U

    Reconstructing surfaceScalarFields

        phi

Reconstructing point fields

No point fields

No lagrangian fields

Time = 0.00237

Reconstructing FV fields

    Reconstructing volScalarFields

        p
        T
        rho

    Reconstructing volVectorFields

        U

    Reconstructing surfaceScalarFields

        phi

Reconstructing point fields

No point fields

No lagrangian fields

Time = 0.00238

Reconstructing FV fields

    Reconstructing volScalarFields

        p
        T
        rho

    Reconstructing volVectorFields

        U

    Reconstructing surfaceScalarFields

        phi

Reconstructing point fields

No point fields

No lagrangian fields

Time = 0.00239

Reconstructing FV fields

    Reconstructing volScalarFields

        p
        T
        rho

    Reconstructing volVectorFields

        U

    Reconstructing surfaceScalarFields

        phi

Reconstructing point fields

No point fields

No lagrangian fields

Time = 0.0024

Reconstructing FV fields

    Reconstructing volScalarFields

        p
        T
        rho

    Reconstructing volVectorFields

        U

    Reconstructing surfaceScalarFields

        phi

Reconstructing point fields

No point fields

No lagrangian fields

Time = 0.00241

Reconstructing FV fields

    Reconstructing volScalarFields

        p
        T
        rho

    Reconstructing volVectorFields

        U

    Reconstructing surfaceScalarFields

        phi

Reconstructing point fields

No point fields

No lagrangian fields

Time = 0.00242

Reconstructing FV fields

    Reconstructing volScalarFields

        p
        T
        rho

    Reconstructing volVectorFields

        U

    Reconstructing surfaceScalarFields

        phi

Reconstructing point fields

No point fields

No lagrangian fields

Time = 0.00243

Reconstructing FV fields

    Reconstructing volScalarFields

        p
        T
        rho

    Reconstructing volVectorFields

        U

    Reconstructing surfaceScalarFields

        phi

Reconstructing point fields

No point fields

No lagrangian fields

Time = 0.00244

Reconstructing FV fields

    Reconstructing volScalarFields

        p
        T
        rho

    Reconstructing volVectorFields

        U

    Reconstructing surfaceScalarFields

        phi

Reconstructing point fields

No point fields

No lagrangian fields

Time = 0.00245

Reconstructing FV fields

    Reconstructing volScalarFields

        p
        T
        rho

    Reconstructing volVectorFields

        U

    Reconstructing surfaceScalarFields

        phi

Reconstructing point fields

No point fields

No lagrangian fields

Time = 0.00246

Reconstructing FV fields

    Reconstructing volScalarFields

        p
        T
        rho

    Reconstructing volVectorFields

        U

    Reconstructing surfaceScalarFields

        phi

Reconstructing point fields

No point fields

No lagrangian fields

Time = 0.00247

Reconstructing FV fields

    Reconstructing volScalarFields

        p
        T
        rho

    Reconstructing volVectorFields

        U

    Reconstructing surfaceScalarFields

        phi

Reconstructing point fields

No point fields

No lagrangian fields

Time = 0.00248

Reconstructing FV fields

    Reconstructing volScalarFields

        p
        T
        rho

    Reconstructing volVectorFields

        U

    Reconstructing surfaceScalarFields

        phi

Reconstructing point fields

No point fields

No lagrangian fields

Time = 0.00249

Reconstructing FV fields

    Reconstructing volScalarFields

        p
        T
        rho

    Reconstructing volVectorFields

        U

    Reconstructing surfaceScalarFields

        phi

Reconstructing point fields

No point fields

No lagrangian fields

Time = 0.0025

Reconstructing FV fields

    Reconstructing volScalarFields

        p
        T
        rho

    Reconstructing volVectorFields

        U

    Reconstructing surfaceScalarFields

        phi

Reconstructing point fields

No point fields

No lagrangian fields

Time = 0.00251

Reconstructing FV fields

    Reconstructing volScalarFields

        p
        T
        rho

    Reconstructing volVectorFields

        U

    Reconstructing surfaceScalarFields

        phi

Reconstructing point fields

No point fields

No lagrangian fields

Time = 0.00252

Reconstructing FV fields

    Reconstructing volScalarFields

        p
        T
        rho

    Reconstructing volVectorFields

        U

    Reconstructing surfaceScalarFields

        phi

Reconstructing point fields

No point fields

No lagrangian fields

Time = 0.00253

Reconstructing FV fields

    Reconstructing volScalarFields

        p
        T
        rho

    Reconstructing volVectorFields

        U

    Reconstructing surfaceScalarFields

        phi

Reconstructing point fields

No point fields

No lagrangian fields

Time = 0.00254

Reconstructing FV fields

    Reconstructing volScalarFields

        p
        T
        rho

    Reconstructing volVectorFields

        U

    Reconstructing surfaceScalarFields

        phi

Reconstructing point fields

No point fields

No lagrangian fields

Time = 0.00255

Reconstructing FV fields

    Reconstructing volScalarFields

        p
        T
        rho

    Reconstructing volVectorFields

        U

    Reconstructing surfaceScalarFields

        phi

Reconstructing point fields

No point fields

No lagrangian fields

Time = 0.00256

Reconstructing FV fields

    Reconstructing volScalarFields

        p
        T
        rho

    Reconstructing volVectorFields

        U

    Reconstructing surfaceScalarFields

        phi

Reconstructing point fields

No point fields

No lagrangian fields

Time = 0.00257

Reconstructing FV fields

    Reconstructing volScalarFields

        p
        T
        rho

    Reconstructing volVectorFields

        U

    Reconstructing surfaceScalarFields

        phi

Reconstructing point fields

No point fields

No lagrangian fields

Time = 0.00258

Reconstructing FV fields

    Reconstructing volScalarFields

        p
        T
        rho

    Reconstructing volVectorFields

        U

    Reconstructing surfaceScalarFields

        phi

Reconstructing point fields

No point fields

No lagrangian fields

Time = 0.00259

Reconstructing FV fields

    Reconstructing volScalarFields

        p
        T
        rho

    Reconstructing volVectorFields

        U

    Reconstructing surfaceScalarFields

        phi

Reconstructing point fields

No point fields

No lagrangian fields

Time = 0.0026

Reconstructing FV fields

    Reconstructing volScalarFields

        p
        T
        rho

    Reconstructing volVectorFields

        U

    Reconstructing surfaceScalarFields

        phi

Reconstructing point fields

No point fields

No lagrangian fields

Time = 0.00261

Reconstructing FV fields

    Reconstructing volScalarFields

        p
        T
        rho

    Reconstructing volVectorFields

        U

    Reconstructing surfaceScalarFields

        phi

Reconstructing point fields

No point fields

No lagrangian fields

Time = 0.00262

Reconstructing FV fields

    Reconstructing volScalarFields

        p
        T
        rho

    Reconstructing volVectorFields

        U

    Reconstructing surfaceScalarFields

        phi

Reconstructing point fields

No point fields

No lagrangian fields

Time = 0.00263

Reconstructing FV fields

    Reconstructing volScalarFields

        p
        T
        rho

    Reconstructing volVectorFields

        U

    Reconstructing surfaceScalarFields

        phi

Reconstructing point fields

No point fields

No lagrangian fields

Time = 0.00264

Reconstructing FV fields

    Reconstructing volScalarFields

        p
        T
        rho

    Reconstructing volVectorFields

        U

    Reconstructing surfaceScalarFields

        phi

Reconstructing point fields

No point fields

No lagrangian fields

Time = 0.00265

Reconstructing FV fields

    Reconstructing volScalarFields

        p
        T
        rho

    Reconstructing volVectorFields

        U

    Reconstructing surfaceScalarFields

        phi

Reconstructing point fields

No point fields

No lagrangian fields

Time = 0.00266

Reconstructing FV fields

    Reconstructing volScalarFields

        p
        T
        rho

    Reconstructing volVectorFields

        U

    Reconstructing surfaceScalarFields

        phi

Reconstructing point fields

No point fields

No lagrangian fields

Time = 0.00267

Reconstructing FV fields

    Reconstructing volScalarFields

        p
        T
        rho

    Reconstructing volVectorFields

        U

    Reconstructing surfaceScalarFields

        phi

Reconstructing point fields

No point fields

No lagrangian fields

Time = 0.00268

Reconstructing FV fields

    Reconstructing volScalarFields

        p
        T
        rho

    Reconstructing volVectorFields

        U

    Reconstructing surfaceScalarFields

        phi

Reconstructing point fields

No point fields

No lagrangian fields

Time = 0.00269

Reconstructing FV fields

    Reconstructing volScalarFields

        p
        T
        rho

    Reconstructing volVectorFields

        U

    Reconstructing surfaceScalarFields

        phi

Reconstructing point fields

No point fields

No lagrangian fields

Time = 0.0027

Reconstructing FV fields

    Reconstructing volScalarFields

        p
        T
        rho

    Reconstructing volVectorFields

        U

    Reconstructing surfaceScalarFields

        phi

Reconstructing point fields

No point fields

No lagrangian fields

Time = 0.00271

Reconstructing FV fields

    Reconstructing volScalarFields

        p
        T
        rho

    Reconstructing volVectorFields

        U

    Reconstructing surfaceScalarFields

        phi

Reconstructing point fields

No point fields

No lagrangian fields

Time = 0.00272

Reconstructing FV fields

    Reconstructing volScalarFields

        p
        T
        rho

    Reconstructing volVectorFields

        U

    Reconstructing surfaceScalarFields

        phi

Reconstructing point fields

No point fields

No lagrangian fields

Time = 0.00273

Reconstructing FV fields

    Reconstructing volScalarFields

        p
        T
        rho

    Reconstructing volVectorFields

        U

    Reconstructing surfaceScalarFields

        phi

Reconstructing point fields

No point fields

No lagrangian fields

Time = 0.00274

Reconstructing FV fields

    Reconstructing volScalarFields

        p
        T
        rho

    Reconstructing volVectorFields

        U

    Reconstructing surfaceScalarFields

        phi

Reconstructing point fields

No point fields

No lagrangian fields

Time = 0.00275

Reconstructing FV fields

    Reconstructing volScalarFields

        p
        T
        rho

    Reconstructing volVectorFields

        U

    Reconstructing surfaceScalarFields

        phi

Reconstructing point fields

No point fields

No lagrangian fields

Time = 0.00276

Reconstructing FV fields

    Reconstructing volScalarFields

        p
        T
        rho

    Reconstructing volVectorFields

        U

    Reconstructing surfaceScalarFields

        phi

Reconstructing point fields

No point fields

No lagrangian fields

Time = 0.00277

Reconstructing FV fields

    Reconstructing volScalarFields

        p
        T
        rho

    Reconstructing volVectorFields

        U

    Reconstructing surfaceScalarFields

        phi

Reconstructing point fields

No point fields

No lagrangian fields

Time = 0.00278

Reconstructing FV fields

    Reconstructing volScalarFields

        p
        T
        rho

    Reconstructing volVectorFields

        U

    Reconstructing surfaceScalarFields

        phi

Reconstructing point fields

No point fields

No lagrangian fields

Time = 0.00279

Reconstructing FV fields

    Reconstructing volScalarFields

        p
        T
        rho

    Reconstructing volVectorFields

        U

    Reconstructing surfaceScalarFields

        phi

Reconstructing point fields

No point fields

No lagrangian fields

Time = 0.0028

Reconstructing FV fields

    Reconstructing volScalarFields

        p
        T
        rho

    Reconstructing volVectorFields

        U

    Reconstructing surfaceScalarFields

        phi

Reconstructing point fields

No point fields

No lagrangian fields

Time = 0.00281

Reconstructing FV fields

    Reconstructing volScalarFields

        p
        T
        rho

    Reconstructing volVectorFields

        U

    Reconstructing surfaceScalarFields

        phi

Reconstructing point fields

No point fields

No lagrangian fields

Time = 0.00282

Reconstructing FV fields

    Reconstructing volScalarFields

        p
        T
        rho

    Reconstructing volVectorFields

        U

    Reconstructing surfaceScalarFields

        phi

Reconstructing point fields

No point fields

No lagrangian fields

Time = 0.00283

Reconstructing FV fields

    Reconstructing volScalarFields

        p
        T
        rho

    Reconstructing volVectorFields

        U

    Reconstructing surfaceScalarFields

        phi

Reconstructing point fields

No point fields

No lagrangian fields

Time = 0.00284

Reconstructing FV fields

    Reconstructing volScalarFields

        p
        T
        rho

    Reconstructing volVectorFields

        U

    Reconstructing surfaceScalarFields

        phi

Reconstructing point fields

No point fields

No lagrangian fields

Time = 0.00285

Reconstructing FV fields

    Reconstructing volScalarFields

        p
        T
        rho

    Reconstructing volVectorFields

        U

    Reconstructing surfaceScalarFields

        phi

Reconstructing point fields

No point fields

No lagrangian fields

Time = 0.00286

Reconstructing FV fields

    Reconstructing volScalarFields

        p
        T
        rho

    Reconstructing volVectorFields

        U

    Reconstructing surfaceScalarFields

        phi

Reconstructing point fields

No point fields

No lagrangian fields

Time = 0.00287

Reconstructing FV fields

    Reconstructing volScalarFields

        p
        T
        rho

    Reconstructing volVectorFields

        U

    Reconstructing surfaceScalarFields

        phi

Reconstructing point fields

No point fields

No lagrangian fields

Time = 0.00288

Reconstructing FV fields

    Reconstructing volScalarFields

        p
        T
        rho

    Reconstructing volVectorFields

        U

    Reconstructing surfaceScalarFields

        phi

Reconstructing point fields

No point fields

No lagrangian fields

Time = 0.00289

Reconstructing FV fields

    Reconstructing volScalarFields

        p
        T
        rho

    Reconstructing volVectorFields

        U

    Reconstructing surfaceScalarFields

        phi

Reconstructing point fields

No point fields

No lagrangian fields

Time = 0.0029

Reconstructing FV fields

    Reconstructing volScalarFields

        p
        T
        rho

    Reconstructing volVectorFields

        U

    Reconstructing surfaceScalarFields

        phi

Reconstructing point fields

No point fields

No lagrangian fields

Time = 0.00291

Reconstructing FV fields

    Reconstructing volScalarFields

        p
        T
        rho

    Reconstructing volVectorFields

        U

    Reconstructing surfaceScalarFields

        phi

Reconstructing point fields

No point fields

No lagrangian fields

Time = 0.00292

Reconstructing FV fields

    Reconstructing volScalarFields

        p
        T
        rho

    Reconstructing volVectorFields

        U

    Reconstructing surfaceScalarFields

        phi

Reconstructing point fields

No point fields

No lagrangian fields

Time = 0.00293

Reconstructing FV fields

    Reconstructing volScalarFields

        p
        T
        rho

    Reconstructing volVectorFields

        U

    Reconstructing surfaceScalarFields

        phi

Reconstructing point fields

No point fields

No lagrangian fields

Time = 0.00294

Reconstructing FV fields

    Reconstructing volScalarFields

        p
        T
        rho

    Reconstructing volVectorFields

        U

    Reconstructing surfaceScalarFields

        phi

Reconstructing point fields

No point fields

No lagrangian fields

Time = 0.00295

Reconstructing FV fields

    Reconstructing volScalarFields

        p
        T
        rho

    Reconstructing volVectorFields

        U

    Reconstructing surfaceScalarFields

        phi

Reconstructing point fields

No point fields

No lagrangian fields

Time = 0.00296

Reconstructing FV fields

    Reconstructing volScalarFields

        p
        T
        rho

    Reconstructing volVectorFields

        U

    Reconstructing surfaceScalarFields

        phi

Reconstructing point fields

No point fields

No lagrangian fields

Time = 0.00297

Reconstructing FV fields

    Reconstructing volScalarFields

        p
        T
        rho

    Reconstructing volVectorFields

        U

    Reconstructing surfaceScalarFields

        phi

Reconstructing point fields

No point fields

No lagrangian fields

Time = 0.00298

Reconstructing FV fields

    Reconstructing volScalarFields

        p
        T
        rho

    Reconstructing volVectorFields

        U

    Reconstructing surfaceScalarFields

        phi

Reconstructing point fields

No point fields

No lagrangian fields

Time = 0.00299

Reconstructing FV fields

    Reconstructing volScalarFields

        p
        T
        rho

    Reconstructing volVectorFields

        U

    Reconstructing surfaceScalarFields

        phi

Reconstructing point fields

No point fields

No lagrangian fields

Time = 0.003

Reconstructing FV fields

    Reconstructing volScalarFields

        p
        T
        rho

    Reconstructing volVectorFields

        U

    Reconstructing surfaceScalarFields

        phi

Reconstructing point fields

No point fields

No lagrangian fields

Time = 0.00301

Reconstructing FV fields

    Reconstructing volScalarFields

        p
        T
        rho

    Reconstructing volVectorFields

        U

    Reconstructing surfaceScalarFields

        phi

Reconstructing point fields

No point fields

No lagrangian fields

Time = 0.00302

Reconstructing FV fields

    Reconstructing volScalarFields

        p
        T
        rho

    Reconstructing volVectorFields

        U

    Reconstructing surfaceScalarFields

        phi

Reconstructing point fields

No point fields

No lagrangian fields

Time = 0.00303

Reconstructing FV fields

    Reconstructing volScalarFields

        p
        T
        rho

    Reconstructing volVectorFields

        U

    Reconstructing surfaceScalarFields

        phi

Reconstructing point fields

No point fields

No lagrangian fields

Time = 0.00304

Reconstructing FV fields

    Reconstructing volScalarFields

        p
        T
        rho

    Reconstructing volVectorFields

        U

    Reconstructing surfaceScalarFields

        phi

Reconstructing point fields

No point fields

No lagrangian fields

Time = 0.00305

Reconstructing FV fields

    Reconstructing volScalarFields

        p
        T
        rho

    Reconstructing volVectorFields

        U

    Reconstructing surfaceScalarFields

        phi

Reconstructing point fields

No point fields

No lagrangian fields

Time = 0.00306

Reconstructing FV fields

    Reconstructing volScalarFields

        p
        T
        rho

    Reconstructing volVectorFields

        U

    Reconstructing surfaceScalarFields

        phi

Reconstructing point fields

No point fields

No lagrangian fields

Time = 0.00307

Reconstructing FV fields

    Reconstructing volScalarFields

        p
        T
        rho

    Reconstructing volVectorFields

        U

    Reconstructing surfaceScalarFields

        phi

Reconstructing point fields

No point fields

No lagrangian fields

Time = 0.00308

Reconstructing FV fields

    Reconstructing volScalarFields

        p
        T
        rho

    Reconstructing volVectorFields

        U

    Reconstructing surfaceScalarFields

        phi

Reconstructing point fields

No point fields

No lagrangian fields

Time = 0.00309

Reconstructing FV fields

    Reconstructing volScalarFields

        p
        T
        rho

    Reconstructing volVectorFields

        U

    Reconstructing surfaceScalarFields

        phi

Reconstructing point fields

No point fields

No lagrangian fields

Time = 0.0031

Reconstructing FV fields

    Reconstructing volScalarFields

        p
        T
        rho

    Reconstructing volVectorFields

        U

    Reconstructing surfaceScalarFields

        phi

Reconstructing point fields

No point fields

No lagrangian fields

Time = 0.00311

Reconstructing FV fields

    Reconstructing volScalarFields

        p
        T
        rho

    Reconstructing volVectorFields

        U

    Reconstructing surfaceScalarFields

        phi

Reconstructing point fields

No point fields

No lagrangian fields

Time = 0.00312

Reconstructing FV fields

    Reconstructing volScalarFields

        p
        T
        rho

    Reconstructing volVectorFields

        U

    Reconstructing surfaceScalarFields

        phi

Reconstructing point fields

No point fields

No lagrangian fields

Time = 0.00313

Reconstructing FV fields

    Reconstructing volScalarFields

        p
        T
        rho

    Reconstructing volVectorFields

        U

    Reconstructing surfaceScalarFields

        phi

Reconstructing point fields

No point fields

No lagrangian fields

Time = 0.00314

Reconstructing FV fields

    Reconstructing volScalarFields

        p
        T
        rho

    Reconstructing volVectorFields

        U

    Reconstructing surfaceScalarFields

        phi

Reconstructing point fields

No point fields

No lagrangian fields

Time = 0.00315

Reconstructing FV fields

    Reconstructing volScalarFields

        p
        T
        rho

    Reconstructing volVectorFields

        U

    Reconstructing surfaceScalarFields

        phi

Reconstructing point fields

No point fields

No lagrangian fields

Time = 0.00316

Reconstructing FV fields

    Reconstructing volScalarFields

        p
        T
        rho

    Reconstructing volVectorFields

        U

    Reconstructing surfaceScalarFields

        phi

Reconstructing point fields

No point fields

No lagrangian fields

Time = 0.00317

Reconstructing FV fields

    Reconstructing volScalarFields

        p
        T
        rho

    Reconstructing volVectorFields

        U

    Reconstructing surfaceScalarFields

        phi

Reconstructing point fields

No point fields

No lagrangian fields

Time = 0.00318

Reconstructing FV fields

    Reconstructing volScalarFields

        p
        T
        rho

    Reconstructing volVectorFields

        U

    Reconstructing surfaceScalarFields

        phi

Reconstructing point fields

No point fields

No lagrangian fields

Time = 0.00319

Reconstructing FV fields

    Reconstructing volScalarFields

        p
        T
        rho

    Reconstructing volVectorFields

        U

    Reconstructing surfaceScalarFields

        phi

Reconstructing point fields

No point fields

No lagrangian fields

Time = 0.0032

Reconstructing FV fields

    Reconstructing volScalarFields

        p
        T
        rho

    Reconstructing volVectorFields

        U

    Reconstructing surfaceScalarFields

        phi

Reconstructing point fields

No point fields

No lagrangian fields

Time = 0.00321

Reconstructing FV fields

    Reconstructing volScalarFields

        p
        T
        rho

    Reconstructing volVectorFields

        U

    Reconstructing surfaceScalarFields

        phi

Reconstructing point fields

No point fields

No lagrangian fields

Time = 0.00322

Reconstructing FV fields

    Reconstructing volScalarFields

        p
        T
        rho

    Reconstructing volVectorFields

        U

    Reconstructing surfaceScalarFields

        phi

Reconstructing point fields

No point fields

No lagrangian fields

Time = 0.00323

Reconstructing FV fields

    Reconstructing volScalarFields

        p
        T
        rho

    Reconstructing volVectorFields

        U

    Reconstructing surfaceScalarFields

        phi

Reconstructing point fields

No point fields

No lagrangian fields

Time = 0.00324

Reconstructing FV fields

    Reconstructing volScalarFields

        p
        T
        rho

    Reconstructing volVectorFields

        U

    Reconstructing surfaceScalarFields

        phi

Reconstructing point fields

No point fields

No lagrangian fields

Time = 0.00325

Reconstructing FV fields

    Reconstructing volScalarFields

        p
        T
        rho

    Reconstructing volVectorFields

        U

    Reconstructing surfaceScalarFields

        phi

Reconstructing point fields

No point fields

No lagrangian fields

Time = 0.00326

Reconstructing FV fields

    Reconstructing volScalarFields

        p
        T
        rho

    Reconstructing volVectorFields

        U

    Reconstructing surfaceScalarFields

        phi

Reconstructing point fields

No point fields

No lagrangian fields

Time = 0.00327

Reconstructing FV fields

    Reconstructing volScalarFields

        p
        T
        rho

    Reconstructing volVectorFields

        U

    Reconstructing surfaceScalarFields

        phi

Reconstructing point fields

No point fields

No lagrangian fields

Time = 0.00328

Reconstructing FV fields

    Reconstructing volScalarFields

        p
        T
        rho

    Reconstructing volVectorFields

        U

    Reconstructing surfaceScalarFields

        phi

Reconstructing point fields

No point fields

No lagrangian fields

Time = 0.00329

Reconstructing FV fields

    Reconstructing volScalarFields

        p
        T
        rho

    Reconstructing volVectorFields

        U

    Reconstructing surfaceScalarFields

        phi

Reconstructing point fields

No point fields

No lagrangian fields

Time = 0.0033

Reconstructing FV fields

    Reconstructing volScalarFields

        p
        T
        rho

    Reconstructing volVectorFields

        U

    Reconstructing surfaceScalarFields

        phi

Reconstructing point fields

No point fields

No lagrangian fields

Time = 0.00331

Reconstructing FV fields

    Reconstructing volScalarFields

        p
        T
        rho

    Reconstructing volVectorFields

        U

    Reconstructing surfaceScalarFields

        phi

Reconstructing point fields

No point fields

No lagrangian fields

Time = 0.00332

Reconstructing FV fields

    Reconstructing volScalarFields

        p
        T
        rho

    Reconstructing volVectorFields

        U

    Reconstructing surfaceScalarFields

        phi

Reconstructing point fields

No point fields

No lagrangian fields

Time = 0.00333

Reconstructing FV fields

    Reconstructing volScalarFields

        p
        T
        rho

    Reconstructing volVectorFields

        U

    Reconstructing surfaceScalarFields

        phi

Reconstructing point fields

No point fields

No lagrangian fields

Time = 0.00334

Reconstructing FV fields

    Reconstructing volScalarFields

        p
        T
        rho

    Reconstructing volVectorFields

        U

    Reconstructing surfaceScalarFields

        phi

Reconstructing point fields

No point fields

No lagrangian fields

Time = 0.00335

Reconstructing FV fields

    Reconstructing volScalarFields

        p
        T
        rho

    Reconstructing volVectorFields

        U

    Reconstructing surfaceScalarFields

        phi

Reconstructing point fields

No point fields

No lagrangian fields

Time = 0.00336

Reconstructing FV fields

    Reconstructing volScalarFields

        p
        T
        rho

    Reconstructing volVectorFields

        U

    Reconstructing surfaceScalarFields

        phi

Reconstructing point fields

No point fields

No lagrangian fields

Time = 0.00337

Reconstructing FV fields

    Reconstructing volScalarFields

        p
        T
        rho

    Reconstructing volVectorFields

        U

    Reconstructing surfaceScalarFields

        phi

Reconstructing point fields

No point fields

No lagrangian fields

Time = 0.00338

Reconstructing FV fields

    Reconstructing volScalarFields

        p
        T
        rho

    Reconstructing volVectorFields

        U

    Reconstructing surfaceScalarFields

        phi

Reconstructing point fields

No point fields

No lagrangian fields

Time = 0.00339

Reconstructing FV fields

    Reconstructing volScalarFields

        p
        T
        rho

    Reconstructing volVectorFields

        U

    Reconstructing surfaceScalarFields

        phi

Reconstructing point fields

No point fields

No lagrangian fields

Time = 0.0034

Reconstructing FV fields

    Reconstructing volScalarFields

        p
        T
        rho

    Reconstructing volVectorFields

        U

    Reconstructing surfaceScalarFields

        phi

Reconstructing point fields

No point fields

No lagrangian fields

Time = 0.00341

Reconstructing FV fields

    Reconstructing volScalarFields

        p
        T
        rho

    Reconstructing volVectorFields

        U

    Reconstructing surfaceScalarFields

        phi

Reconstructing point fields

No point fields

No lagrangian fields

Time = 0.00342

Reconstructing FV fields

    Reconstructing volScalarFields

        p
        T
        rho

    Reconstructing volVectorFields

        U

    Reconstructing surfaceScalarFields

        phi

Reconstructing point fields

No point fields

No lagrangian fields

Time = 0.00343

Reconstructing FV fields

    Reconstructing volScalarFields

        p
        T
        rho

    Reconstructing volVectorFields

        U

    Reconstructing surfaceScalarFields

        phi

Reconstructing point fields

No point fields

No lagrangian fields

Time = 0.00344

Reconstructing FV fields

    Reconstructing volScalarFields

        p
        T
        rho

    Reconstructing volVectorFields

        U

    Reconstructing surfaceScalarFields

        phi

Reconstructing point fields

No point fields

No lagrangian fields

Time = 0.00345

Reconstructing FV fields

    Reconstructing volScalarFields

        p
        T
        rho

    Reconstructing volVectorFields

        U

    Reconstructing surfaceScalarFields

        phi

Reconstructing point fields

No point fields

No lagrangian fields

Time = 0.00346

Reconstructing FV fields

    Reconstructing volScalarFields

        p
        T
        rho

    Reconstructing volVectorFields

        U

    Reconstructing surfaceScalarFields

        phi

Reconstructing point fields

No point fields

No lagrangian fields

Time = 0.00347

Reconstructing FV fields

    Reconstructing volScalarFields

        p
        T
        rho

    Reconstructing volVectorFields

        U

    Reconstructing surfaceScalarFields

        phi

Reconstructing point fields

No point fields

No lagrangian fields

Time = 0.00348

Reconstructing FV fields

    Reconstructing volScalarFields

        p
        T
        rho

    Reconstructing volVectorFields

        U

    Reconstructing surfaceScalarFields

        phi

Reconstructing point fields

No point fields

No lagrangian fields

Time = 0.00349

Reconstructing FV fields

    Reconstructing volScalarFields

        p
        T
        rho

    Reconstructing volVectorFields

        U

    Reconstructing surfaceScalarFields

        phi

Reconstructing point fields

No point fields

No lagrangian fields

Time = 0.0035

Reconstructing FV fields

    Reconstructing volScalarFields

        p
        T
        rho

    Reconstructing volVectorFields

        U

    Reconstructing surfaceScalarFields

        phi

Reconstructing point fields

No point fields

No lagrangian fields


End

