/*---------------------------------------------------------------------------*\
| =========                 |                                                 |
| \\      /  F ield         | OpenFOAM: The Open Source CFD Toolbox           |
|  \\    /   O peration     | Version:  v2006                                 |
|   \\  /    A nd           | Website:  www.openfoam.com                      |
|    \\/     M anipulation  |                                                 |
\*---------------------------------------------------------------------------*/
Build  : _b45f8f6f58-20200629 OPENFOAM=2006
Arch   : "LSB;label=32;scalar=64"
Exec   : /opt/OpenFOAM/OpenFOAM-v2006/platforms/linux64GccDPInt32Opt/bin/snappyHexMesh -parallel -overwrite
Date   : Feb 18 2022
Time   : 00:52:46
Host   : node733.pi.sjtu.edu.cn
PID    : 3097885
I/O    : collated (maxThreadFileBufferSize 0)
         Threading not activated since maxThreadFileBufferSize = 0.
         Writing may run slowly for large file sizes.
Case   : /dssg/home/acct-medgm/medgm/05-NSCBC-Z64/Workspace/run/sineWaveDampingPimpleFoam3Dduct-finer
nProcs : 64
Hosts  :
(
    (node733.pi.sjtu.edu.cn 64)
)
Pstream initialized with:
    floatTransfer      : 0
    nProcsSimpleSum    : 0
    commsType          : nonBlocking
    polling iterations : 0
trapFpe: Floating point exception trapping enabled (FOAM_SIGFPE).
fileModificationChecking : Monitoring run-time modified files using timeStamp (fileModificationSkew 5, maxFileModificationPolls 20)
allowSystemOperations : Allowing user-supplied system call operations

// * * * * * * * * * * * * * * * * * * * * * * * * * * * * * * * * * * * * * //
Create time

Create mesh for time = 0

Read mesh in = 0.29 s

Overall mesh bounding box  : (-0.5 -0.5 -1) (0.5 0.5 1)
Relative tolerance         : 1e-06
Absolute matching distance : 2.449489742783178e-06

Reading refinement surfaces.
Read refinement surfaces in = 0 s

Reading refinement shells.
Refinement level 3 for all cells inside box
Read refinement shells in = 0 s

Setting refinement level of surface to be consistent with shells.
For geometry body.stl detected 0 uncached triangles out of 344
Checked shell refinement in = 0.06 s

Reading features.
Read edgeMesh body.eMesh
    points      : 172
    edges       : 172
    boundingBox : (-0.300000011920929 -0.2997998893260956 -2) (0.300000011920929 0.2997998893260956 2)

Refinement level according to distance to "body.eMesh" (172 points, 172 edges).
    level 4 for all cells within 0 metre.
Read features in = 0.07000000000000001 s


Determining initial surface intersections
-----------------------------------------

Edge intersection testing:
    Number of edges             : 13376
    Number of edges to retest   : 0
    Number of intersected edges : 0
Edge intersection testing:
    Number of edges             : 13376
    Number of edges to retest   : 13376
    Number of intersected edges : 1024
Calculated surface intersections in = 0.44 s

Initial mesh : cells:4096  faces:13376  points:5265
Cells per refinement level:
    0	4096

Adding patches for surface regions
----------------------------------

Patch Type                Region                        
----- ----                ------                        
body:

3     wall                body                          

Added patches in = 0.08 s

Edge intersection testing:
    Number of edges             : 13376
    Number of edges to retest   : 0
    Number of intersected edges : 1024
Selecting decompositionMethod scotch [64]

Refinement phase
----------------

Found point (0.1 0.001 0.001) in cell 0 on processor 48

Feature refinement iteration 0
------------------------------

Marked for refinement due to explicit features             : 0 cells.
Determined cells to refine in = 0.04 s
Selected for feature refinement : 0 cells (out of 4096)
Stopping refining since too few cells selected.


Surface refinement iteration 0
------------------------------

Marked for refinement due to surface intersection          : 1792 cells.
Determined cells to refine in = 0 s
Selected for refinement : 1792 cells (out of 4096)
Edge intersection testing:
    Number of edges             : 54164
    Number of edges to retest   : 51848
    Number of intersected edges : 5120
Refined mesh in = 0 s
After refinement surface refinement iteration 0 : cells:16640  faces:54164  points:20981
Cells per refinement level:
    0	2304
    1	14336
Skipping balancing since max unbalance 0 is less than allowable 0.1

Surface refinement iteration 1
------------------------------

Marked for refinement due to surface intersection          : 6656 cells.
Determined cells to refine in = 0 s
Selected for refinement : 7168 cells (out of 16640)
Edge intersection testing:
    Number of edges             : 221000
    Number of edges to retest   : 209692
    Number of intersected edges : 20480
Refined mesh in = 0.02 s
After refinement surface refinement iteration 1 : cells:66816  faces:221000  points:87509
Cells per refinement level:
    0	1792
    1	11776
    2	53248
Skipping balancing since max unbalance 0 is less than allowable 0.1

Surface refinement iteration 2
------------------------------

Marked for refinement due to surface intersection          : 27648 cells.
Determined cells to refine in = 0 s
Selected for refinement : 30976 cells (out of 66816)
Edge intersection testing:
    Number of edges             : 931808
    Number of edges to retest   : 895116
    Number of intersected edges : 77824
Refined mesh in = 0.03 s
After refinement surface refinement iteration 2 : cells:283648  faces:931808  points:364729
Cells per refinement level:
    0	1536
    1	10752
    2	50176
    3	221184
Skipping balancing since max unbalance 0 is less than allowable 0.1

Surface refinement iteration 3
------------------------------

Marked for refinement due to surface intersection          : 112640 cells.
Determined cells to refine in = 0 s
Selected for refinement : 128000 cells (out of 283648)
Edge intersection testing:
    Number of edges             : 3851084
    Number of edges to retest   : 3745708
    Number of intersected edges : 311296
Refined mesh in = 0.12 s
After refinement surface refinement iteration 3 : cells:1179648  faces:3851084  points:1492153
Cells per refinement level:
    0	1024
    1	13312
    2	49152
    3	215040
    4	901120
Skipping balancing since max unbalance 0 is less than allowable 0.1

Surface refinement iteration 4
------------------------------

Marked for refinement due to surface intersection          : 0 cells.
Determined cells to refine in = 0.02 s
Selected for refinement : 0 cells (out of 1179648)
Stopping refining since too few cells selected.


Removing mesh beyond surface intersections
------------------------------------------

Setting cellZones according to locationsInMesh:
Location : (0.1 0.001 0.001)
    cellZone : none

For cellZone none found point (0.1 0.001 0.001) in global region 1 out of 2 regions.
Keeping all cells containing inside points
Selected for keeping : 1179648 cells.
Edge intersection testing:
    Number of edges             : 3851084
    Number of edges to retest   : 0
    Number of intersected edges : 311296
Setting cellZones according to locationsInMesh:
Location : (0.1 0.001 0.001)
    cellZone : none

For cellZone none found point (0.1 0.001 0.001) in global region 1 out of 2 regions.
Keeping all cells containing inside points
Selected for keeping : 903152 cells.
Edge intersection testing:
    Number of edges             : 3069680
    Number of edges to retest   : 356784
    Number of intersected edges : 311296

Shell refinement iteration 0
----------------------------

Marked for refinement due to distance to explicit features : 0 cells.
Marked for refinement due to refinement shells             : 37488 cells.
Determined cells to refine in = 0.18 s
Selected for internal refinement : 37488 cells (out of 903152)
Edge intersection testing:
    Number of edges             : 3869528
    Number of edges to retest   : 1277190
    Number of intersected edges : 311296
Refined mesh in = 0.1 s
After refinement shell refinement iteration 0 : cells:1165568  faces:3869528  points:1535371
Cells per refinement level:
    0	0
    1	8192
    2	69952
    3	337056
    4	750368
Skipping balancing since max unbalance 0.02723479024818798 is less than allowable 0.1

Shell refinement iteration 1
----------------------------

Marked for refinement due to distance to explicit features : 0 cells.
Marked for refinement due to refinement shells             : 78144 cells.
Determined cells to refine in = 0.02 s
Selected for internal refinement : 78144 cells (out of 1165568)
Edge intersection testing:
    Number of edges             : 5572112
    Number of edges to retest   : 2230140
    Number of intersected edges : 311296
Refined mesh in = 0.22 s
After refinement shell refinement iteration 1 : cells:1712576  faces:5572112  points:2142115
Cells per refinement level:
    0	0
    1	0
    2	65536
    3	896672
    4	750368
Skipping balancing since max unbalance 0.05908292537090332 is less than allowable 0.1

Shell refinement iteration 2
----------------------------

Marked for refinement due to distance to explicit features : 0 cells.
Marked for refinement due to refinement shells             : 65536 cells.
Determined cells to refine in = 0.03 s
Selected for internal refinement : 65536 cells (out of 1712576)
Edge intersection testing:
    Number of edges             : 6964208
    Number of edges to retest   : 1847546
    Number of intersected edges : 311296
Refined mesh in = 0.19 s
After refinement shell refinement iteration 2 : cells:2171328  faces:6964208  points:2615395
Cells per refinement level:
    0	0
    1	0
    2	0
    3	1420960
    4	750368
Skipping balancing since max unbalance 0.04660005305508896 is less than allowable 0.1

Shell refinement iteration 3
----------------------------

No cells marked for refinement since reached limit 2000000.
Determined cells to refine in = 0.04 s
Selected for internal refinement : 0 cells (out of 2171328)
Stopping refining since too few cells selected.


Dangling coarse cells refinement iteration 0
--------------------------------------------

Determined cells to refine in = 0.01 s
Selected for refinement : 0 cells (out of 2171328)
Stopping refining since too few cells selected.


Dangling coarse cells refinement iteration 0
--------------------------------------------

Determined cells to refine in = 0 s
Selected for refinement : 0 cells (out of 2171328)
Stopping refining since too few cells selected.


Refinement transition refinement iteration 0
--------------------------------------------

Determined cells to refine in = 0 s
Selected for refinement : 0 cells (out of 2171328)
Stopping refining since too few cells selected.


Splitting mesh at surface intersections
---------------------------------------

Introducing baffles for 311296 faces that are intersected by the surface.

Setting cellZones according to locationsInMesh:
Location : (0.1 0.001 0.001)
    cellZone : none

For cellZone none found point (0.1 0.001 0.001) in global region 1 out of 2 regions.
Edge intersection testing:
    Number of edges             : 7275504
    Number of edges to retest   : 1962420
    Number of intersected edges : 622592
Created baffles in = 0.18 s


After introducing baffles : cells:2171328  faces:7275504  points:2615395
Cells per refinement level:
    0	0
    1	0
    2	0
    3	1420960
    4	750368

Introducing baffles to block off problem cells
----------------------------------------------

markFacesOnProblemCells : marked 599742 additional internal faces to be converted into baffles.
Analyzed problem cells in = 0.12 s


Introducing baffles to delete problem cells.

Edge intersection testing:
    Number of edges             : 7875246
    Number of edges to retest   : 1843088
    Number of intersected edges : 622592
Created baffles in = 0.17 s


After introducing baffles : cells:2171328  faces:7875246  points:2615395
Cells per refinement level:
    0	0
    1	0
    2	0
    3	1420960
    4	750368
Setting cellZones according to locationsInMesh:
Location : (0.1 0.001 0.001)
    cellZone : none

For cellZone none found point (0.1 0.001 0.001) in global region 1 out of 288970 regions.
Edge intersection testing:
    Number of edges             : 7875246
    Number of edges to retest   : 2300534
    Number of intersected edges : 622592

Remove unreachable sections of mesh
-----------------------------------

Keeping all cells containing points 1((0.1 0.001 0.001))
Selected for keeping : 968704 cells.
Edge intersection testing:
    Number of edges             : 3173824
    Number of edges to retest   : 0
    Number of intersected edges : 311296
Split mesh in = 0.83 s


After subsetting : cells:968704  faces:3173824  points:1237153
Cells per refinement level:
    0	0
    1	0
    2	0
    3	538624
    4	430080

Introducing zones for interfaces
--------------------------------

Setting cellZones according to locationsInMesh:
Location : (0.1 0.001 0.001)
    cellZone : none

For cellZone none found point (0.1 0.001 0.001) in global region 0 out of 1 regions.
Setting faceZones according to neighbouring cellZones:

Edge intersection testing:
    Number of edges             : 3173824
    Number of edges to retest   : 0
    Number of intersected edges : 311296

Handling cells with snap problems
---------------------------------

Introducing baffles for 311296 faces that are intersected by the surface.

Setting cellZones according to locationsInMesh:
Location : (0.1 0.001 0.001)
    cellZone : none

For cellZone none found point (0.1 0.001 0.001) in global region 0 out of 1 regions.
Edge intersection testing:
    Number of edges             : 3173824
    Number of edges to retest   : 970968
    Number of intersected edges : 311296
Created baffles in = 0.15 s


After introducing baffles : cells:968704  faces:3173824  points:1237153
Cells per refinement level:
    0	0
    1	0
    2	0
    3	538624
    4	430080

Introducing baffles to block off problem cells
----------------------------------------------

markFacesOnProblemCells : marked 0 additional internal faces to be converted into baffles.
Analyzed problem cells in = 0.04 s


Introducing baffles to delete problem cells.

Created baffles in = 0 s


After introducing baffles : cells:968704  faces:3173824  points:1237153
Cells per refinement level:
    0	0
    1	0
    2	0
    3	538624
    4	430080
Setting cellZones according to locationsInMesh:
Location : (0.1 0.001 0.001)
    cellZone : none

For cellZone none found point (0.1 0.001 0.001) in global region 0 out of 1 regions.
Edge intersection testing:
    Number of edges             : 3173824
    Number of edges to retest   : 970968
    Number of intersected edges : 311296

Remove unreachable sections of mesh
-----------------------------------

Split mesh in = 0.09 s


After subsetting : cells:968704  faces:3173824  points:1237153
Cells per refinement level:
    0	0
    1	0
    2	0
    3	538624
    4	430080

Merge free-standing baffles
---------------------------

freeStandingBaffles : detected 0 free-standing baffles out of 0

Detected free-standing baffles : 0
Merged free-standing baffles in = 0.03 s


dupNonManifoldPoints : Found : 0 non-manifold points (out of 1312656)
Detected unsplittable baffles : 0

Merge refined boundary faces
----------------------------

Merging 0 sets of faces.

No faces merged ...

Merging all points on surface that
- are used by only two boundary faces and
- make an angle with a cosine of more than 0.7071067811865476.

No straight edges simplified and no points removed ...

Doing final balancing
---------------------

Found 0 zoned faces to keep together.
Found 0 separated coupled faces to keep together.
Refined mesh : cells:968704  faces:3173824  points:1237153
Cells per refinement level:
    0	0
    1	0
    2	0
    3	538624
    4	430080
Writing mesh to time constant
Wrote mesh in = 3.99 s.
Mesh refined in = 6.58 s.

Morphing phase
--------------

Duplicating 0 points on faceZones of type boundary
Constructing mesh displacer ...
Using mesh parameters 
{
    maxNonOrtho     70;
    maxBoundarySkewness 20;
    maxInternalSkewness 4;
    maxConcave      80;
    minVol          1e-13;
    minTetQuality   -1;
    minArea         -1;
    minTwist        0.001;
    minDeterminant  0.0001;
    minFaceWeight   0.01;
    minVolRatio     0.01;
    minTriangleTwist -1;
    nSmoothScale    4;
    errorReduction  0.75;
    relaxed
    {
        maxNonOrtho     75;
    }
}


Checking initial mesh ...
Checking faces in error :
    non-orthogonality > 70  degrees                        : 0
    faces with face pyramid volume < 1e-13                 : 0
    faces with face-decomposition tet quality < -1         : 0
    faces with concavity > 80  degrees                     : 0
    faces with skewness > 4   (internal) or 20  (boundary) : 0
    faces with interpolation weights (0..1)  < 0.01        : 0
    faces with volume ratio of neighbour cells < 0.01      : 0
    faces with face twist < 0.001                          : 0
    faces on cells with determinant < 0.0001                : 0
Detected 0 illegal faces (concave, zero area or negative cell pyramid volume)
Checked initial mesh in = 0.09 s


Smoothing patch points ...
Smoothing iteration 0
Found 0 non-manifold point(s).

Scaling iteration 0
Moving mesh using displacement scaling : min:1  max:1
Checking faces in error :
    non-orthogonality > 70  degrees                        : 0
    faces with face pyramid volume < 1e-13                 : 0
    faces with face-decomposition tet quality < -1         : 0
    faces with concavity > 80  degrees                     : 0
    faces with skewness > 4   (internal) or 20  (boundary) : 0
    faces with interpolation weights (0..1)  < 0.01        : 0
    faces with volume ratio of neighbour cells < 0.01      : 0
    faces with face twist < 0.001                          : 0
    faces on cells with determinant < 0.0001                : 0
Successfully moved mesh

Smoothing iteration 1
Found 0 non-manifold point(s).

Scaling iteration 0
Moving mesh using displacement scaling : min:1  max:1
Checking faces in error :
    non-orthogonality > 70  degrees                        : 0
    faces with face pyramid volume < 1e-13                 : 0
    faces with face-decomposition tet quality < -1         : 0
    faces with concavity > 80  degrees                     : 0
    faces with skewness > 4   (internal) or 20  (boundary) : 0
    faces with interpolation weights (0..1)  < 0.01        : 0
    faces with volume ratio of neighbour cells < 0.01      : 0
    faces with face twist < 0.001                          : 0
    faces on cells with determinant < 0.0001                : 0
Successfully moved mesh

Smoothing iteration 2
Found 0 non-manifold point(s).

Scaling iteration 0
Moving mesh using displacement scaling : min:1  max:1
Checking faces in error :
    non-orthogonality > 70  degrees                        : 0
    faces with face pyramid volume < 1e-13                 : 0
    faces with face-decomposition tet quality < -1         : 0
    faces with concavity > 80  degrees                     : 0
    faces with skewness > 4   (internal) or 20  (boundary) : 0
    faces with interpolation weights (0..1)  < 0.01        : 0
    faces with volume ratio of neighbour cells < 0.01      : 0
    faces with face twist < 0.001                          : 0
    faces on cells with determinant < 0.0001                : 0
Successfully moved mesh

Patch points smoothed in = 0.18 s



Morph iteration 0
-----------------
Calculating patchDisplacement as distance to nearest surface point ...
    non-zone points : attract to nearest of all non-zone surfaces
    zone points     : attract to zone surface only

Wanted displacement : average:0.001253846994739693 min:2.901878474926404e-05 max:0.004130193114759448
Calculated surface displacement in = 0 s


Detecting near surfaces ...
Overriding nearest with intersection of close gaps at 0 out of 322229 points.
--> FOAM Warning : Displacement (-3.188566295454082e-05 -0.0002166582683535978 -1.110223024625157e-16) at mesh point 1263 coord (0.05396480640453311 0.2953085008440876 -0.74609375) points through the surrounding patch faces
Smoothing displacement ...
Iteration 0
Iteration 10
Iteration 20
Iteration 30
Iteration 40
Iteration 50
Iteration 60
Iteration 70
Iteration 80
Iteration 90
Iteration 100
Iteration 110
Iteration 120
Iteration 130
Iteration 140
Iteration 150
Iteration 160
Iteration 170
Iteration 180
Iteration 190
Iteration 200
Iteration 210
Iteration 220
Iteration 230
Iteration 240
Iteration 250
Iteration 260
Iteration 270
Iteration 280
Iteration 290
Displacement smoothed in = 0.51 s


Moving mesh ...

Iteration 0
Moving mesh using displacement scaling : min:1  max:1
Checking faces in error :
    non-orthogonality > 70  degrees                        : 0
    faces with face pyramid volume < 1e-13                 : 0
    faces with face-decomposition tet quality < -1         : 0
    faces with concavity > 80  degrees                     : 0
    faces with skewness > 4   (internal) or 20  (boundary) : 0
    faces with interpolation weights (0..1)  < 0.01        : 0
    faces with volume ratio of neighbour cells < 0.01      : 0
    faces with face twist < 0.001                          : 0
    faces on cells with determinant < 0.0001                : 0
Successfully moved mesh
Moved mesh in = 0.05 s


Repatching faces according to nearest surface ...
Repatched 0 faces in = 0.02 s


Edge intersection testing:
    Number of edges             : 3173824
    Number of edges to retest   : 1356223
    Number of intersected edges : 311296
Merging 90112 sets of faces.

Edge intersection testing:
    Number of edges             : 3083712
    Number of edges to retest   : 360536
    Number of intersected edges : 221184

Undo iteration 0
----------------
Checking faces in error :
    non-orthogonality > 70  degrees                        : 0
    faces with face pyramid volume < 1e-13                 : 0
    faces with face-decomposition tet quality < -1         : 0
    faces with concavity > 80  degrees                     : 0
    faces with skewness > 4   (internal) or 20  (boundary) : 0
    faces with interpolation weights (0..1)  < 0.01        : 0
    faces with volume ratio of neighbour cells < 0.01      : 0
    faces with face twist < 0.001                          : 0
    faces on cells with determinant < 0.0001                : 0

Merging all points on surface that
- are used by only two boundary faces and
- make an angle with a cosine of more than 0.8660254037844387.

Removing 92014 straight edge points ...

Edge intersection testing:
    Number of edges             : 3083712
    Number of edges to retest   : 360536
    Number of intersected edges : 221184

Undo iteration 0
----------------
Checking faces in error :
    non-orthogonality > 70  degrees                        : 0
    faces with face pyramid volume < 1e-13                 : 0
    faces with face-decomposition tet quality < -1         : 0
    faces with concavity > 80  degrees                     : 0
    faces with skewness > 4   (internal) or 20  (boundary) : 0
    faces with interpolation weights (0..1)  < 0.01        : 0
    faces with volume ratio of neighbour cells < 0.01      : 0
    faces with face twist < 0.001                          : 0
    faces on cells with determinant < 0.0001                : 0
Snapped mesh : cells:968704  faces:3083712  points:1146953
Cells per refinement level:
    0	0
    1	0
    2	0
    3	538624
    4	430080
Writing mesh to time constant
Wrote mesh in = 0.62 s.
Mesh snapped in = 1.47 s.
Layer thickness specified as final layer and expansion ratio.

Shrinking and layer addition phase
----------------------------------

Using mesh parameters 
{
    maxNonOrtho     70;
    maxBoundarySkewness 20;
    maxInternalSkewness 4;
    maxConcave      80;
    minVol          1e-13;
    minTetQuality   -1;
    minArea         -1;
    minTwist        0.001;
    minDeterminant  0.0001;
    minFaceWeight   0.01;
    minVolRatio     0.01;
    minTriangleTwist -1;
    nSmoothScale    4;
    errorReduction  0.75;
    relaxed
    {
        maxNonOrtho     75;
    }
}



Merging all faces of a cell
---------------------------
    - which are on the same patch
    - which make an angle < 175 degrees (cos:-0.9961946980917455)
    - as long as the resulting face doesn't become concave by more than 90 degrees
      (0=straight, 180=fully concave)

Merging 0 sets of faces.

No faces merged ...

Merging all points on surface that
- are used by only two boundary faces and
- make an angle with a cosine of more than -0.9961946980917455.

No straight edges simplified and no points removed ...

Checking mesh manifoldness ...
Outside of mesh is multiply connected across edges or points.
This is not a fatal error but might cause some unexpected behaviour.


Checking initial mesh ...
Checking faces in error :
    non-orthogonality > 70  degrees                        : 0
    faces with face pyramid volume < 1e-13                 : 0
    faces with face-decomposition tet quality < -1         : 0
    faces with concavity > 80  degrees                     : 0
    faces with skewness > 4   (internal) or 20  (boundary) : 0
    faces with interpolation weights (0..1)  < 0.01        : 0
    faces with volume ratio of neighbour cells < 0.01      : 0
    faces with face twist < 0.001                          : 0
    faces on cells with determinant < 0.0001                : 0
Detected 0 illegal faces (concave, zero area or negative cell pyramid volume)
Duplicating 0 points on faceZones of type boundary

Handling points with inconsistent layer specification ...
dupNonManifoldPoints : Found : 0 non-manifold points (out of 1245059)

Adding in total 0 inter-processor patches to handle extrusion of non-manifold processor boundaries.

Handling points with inconsistent layer specification ...

Handling non-manifold points ...

Checking patch manifoldness ...
Outside of local patch is multiply connected across edges or points at 0 points.
Set displacement to zero for all 0 non-manifold points

Handling feature edges (angle < 175) ...
Set displacement to zero for points on 0 feature edges

Handling cells with warped patch faces ...
Set displacement to zero on 0 warped faces since layer would be > 0.5 of the size of the bounding box.

patch faces    layers avg thickness[m]
                     near-wall overall
----- -----    ------ --------- -------
body 221184   3      0.000407  0.00148 

Selecting externalDisplacementMeshMover displacementMedialAxis
displacementMedialAxis : Calculating distance to Medial Axis ...
fieldSmoother : Smoothing normals ...
    Iteration 0   residual 0.001389585333662828
displacementMedialAxis : Inserting points on patch walls if angle to nearest layer patch > 87.5 degrees.
displacementMedialAxis : Inserting points on patch outlet if angle to nearest layer patch > 87.5 degrees.
displacementMedialAxis : Inserting points on patch inlet if angle to nearest layer patch > 87.5 degrees.
fieldSmoother : Smoothing normals in interior ...
    Iteration 0   residual 0.008734234645218006

Layer addition iteration 0
--------------------------

Determining displacement for added points according to pointNormal ...
Detected 0 points with point normal pointing through faces.
Reset displacement at 0 points to average of surrounding points.

displacementMedialAxis : Smoothing using Medial Axis ...
displacementMedialAxis : Reducing layer thickness at 0 nodes where thickness to medial axis distance is large 
displacementMedialAxis : Removing isolated regions ...
- if partially extruded faces make angle < 87.49999999999999
- if exclusively surrounded by non-extruded faces
displacementMedialAxis : Number of isolated points extrusion stopped : 0
fieldSmoother : Smoothing field ...
    Iteration 0   residual 2.305462293477541e-13
displacementMedialAxis : Moving mesh ...
displacementMedialAxis : Iteration 0
Moving mesh using displacement scaling : min:1  max:1
Checking faces in error :
    non-orthogonality > 70  degrees                        : 0
    faces with face pyramid volume < 1e-13                 : 0
    faces with face-decomposition tet quality < -1         : 0
    faces with concavity > 80  degrees                     : 0
    faces with skewness > 4   (internal) or 20  (boundary) : 0
    faces with interpolation weights (0..1)  < 0.01        : 0
    faces with volume ratio of neighbour cells < 0.01      : 0
    faces with face twist < 0.001                          : 0
    faces on cells with determinant < 0.0001                : 0
displacementMedialAxis : Successfully moved mesh
displacementMedialAxis : Finished moving mesh ...
truncateDisplacement : Unextruded 0 faces due to non-consecutive vertices being extruded.
truncateDisplacement : Unextruded 0 faces due to stringed edges with inconsistent extrusion.

Setting up information for layer truncation ...
Detected 0 baffles across faceZones of type internal


Checking mesh with layer ...
Checking faces in error :
    non-orthogonality > 70  degrees                        : 0
    faces with face pyramid volume < 1e-13                 : 0
    faces with face-decomposition tet quality < -1         : 0
    faces with concavity > 80  degrees                     : 0
    faces with skewness > 4   (internal) or 20  (boundary) : 0
    faces with interpolation weights (0..1)  < 0.01        : 0
    faces with volume ratio of neighbour cells < 0.01      : 0
    faces with face twist < 0.001                          : 0
    faces on cells with determinant < 0.0001                : 0
Detected 0 illegal faces (concave, zero area or negative cell pyramid volume)
Extruding 221184 out of 221184 faces (100%). Removed extrusion at 0 faces.
Added 663552 out of 663552 cells (100%).
Edge intersection testing:
    Number of edges             : 5075016
    Number of edges to retest   : 0
    Number of intersected edges : 884736

patch faces    layers   overall thickness
                       [m]       [%]
----- -----    ------   ---       ---
body 221184   3        0.00148   100     


Doing final balancing
---------------------

Layer mesh : cells:1632256  faces:5075016  points:1811153
Cells per refinement level:
    0	0
    1	0
    2	0
    3	538624
    4	1093632
Writing mesh to time constant
Wrote mesh in = 6.51 s.
Layers added in = 6.51 s.
Checking final mesh ...
Checking faces in error :
    non-orthogonality > 70  degrees                        : 0
    faces with face pyramid volume < 1e-13                 : 0
    faces with face-decomposition tet quality < -1         : 0
    faces with concavity > 80  degrees                     : 0
    faces with skewness > 4   (internal) or 20  (boundary) : 0
    faces with interpolation weights (0..1)  < 0.01        : 0
    faces with volume ratio of neighbour cells < 0.01      : 0
    faces with face twist < 0.001                          : 0
    faces on cells with determinant < 0.0001                : 0
Finished meshing without any errors
Finished meshing in = 15.61 s.
End

Finalising parallel run
