/*---------------------------------------------------------------------------*\
| =========                 |                                                 |
| \\      /  F ield         | OpenFOAM: The Open Source CFD Toolbox           |
|  \\    /   O peration     | Version:  v2006                                 |
|   \\  /    A nd           | Website:  www.openfoam.com                      |
|    \\/     M anipulation  |                                                 |
\*---------------------------------------------------------------------------*/
Build  : _b45f8f6f58-20200629 OPENFOAM=2006
Arch   : "LSB;label=32;scalar=64"
Exec   : /opt/OpenFOAM/OpenFOAM-v2006/platforms/linux64GccDPInt32Opt/bin/rhoPimpleFoam -parallel
Date   : Feb 05 2022
Time   : 00:16:21
Host   : cas500.pi.sjtu.edu.cn
PID    : 249157
I/O    : collated (maxThreadFileBufferSize 0)
         Threading not activated since maxThreadFileBufferSize = 0.
         Writing may run slowly for large file sizes.
Case   : /lustre/home/acct-medgm/medgm/05-NSCBC/Workspace/run/sod_shock_tube
nProcs : 4
Hosts  :
(
    (cas500.pi.sjtu.edu.cn 4)
)
Pstream initialized with:
    floatTransfer      : 0
    nProcsSimpleSum    : 0
    commsType          : nonBlocking
    polling iterations : 0
trapFpe: Floating point exception trapping enabled (FOAM_SIGFPE).
fileModificationChecking : Monitoring run-time modified files using timeStamp (fileModificationSkew 5, maxFileModificationPolls 20)
allowSystemOperations : Allowing user-supplied system call operations

// * * * * * * * * * * * * * * * * * * * * * * * * * * * * * * * * * * * * * //
Create time

Create mesh for time = 0


PIMPLE: no residual control data found. Calculations will employ 3 corrector loops

Reading thermophysical properties

Selecting thermodynamics package 
{
    type            hePsiThermo;
    mixture         pureMixture;
    transport       const;
    thermo          hConst;
    equationOfState perfectGas;
    specie          specie;
    energy          sensibleEnthalpy;
}

Reading field U

Reading/calculating face flux field phi

Creating turbulence model

Selecting turbulence model type laminar
Selecting laminar stress model Stokes
Creating field dpdt

Creating field kinetic energy K

No MRF models present

No finite volume options present
Courant Number mean: 0 max: 0

Starting time loop

Courant Number mean: 0 max: 0
deltaT = 1.2e-07
Time = 1.2e-07

PIMPLE: iteration 1
diagonal:  Solving for rho, Initial residual = 0, Final residual = 0, No Iterations 0
DILUPBiCGStab:  Solving for Ux:  solution singularity
[0] #0  Foam::error::printStack(Foam::Ostream&) at ??:?
[1] #0  Foam::error::printStack(Foam::Ostream&) at ??:?
[2] #0  Foam::error::printStack(Foam::Ostream&) at ??:?
[3] #0  Foam::error::printStack(Foam::Ostream&) at ??:?
[1] #1  Foam::sigFpe::sigHandler(int) at ??:?
[0] #1  Foam::sigFpe::sigHandler(int) at ??:?
[2] #1  Foam::sigFpe::sigHandler(int) at ??:?
[3] #1  Foam::sigFpe::sigHandler(int) at ??:?
[0] #2  ? in /lib/x86_64-linux-gnu/libpthread.so.0
[1] #2  ? in /lib/x86_64-linux-gnu/libpthread.so.0
[3] #2  ? in /lib/x86_64-linux-gnu/libpthread.so.0
[2] #2  ? in /lib/x86_64-linux-gnu/libpthread.so.0
[0] #3  Foam::PBiCGStab::scalarSolve(Foam::Field<double>&, Foam::Field<double> const&, unsigned char) const at ??:?
[1] #3  Foam::PBiCGStab::scalarSolve(Foam::Field<double>&, Foam::Field<double> const&, unsigned char) const at ??:?
[3] #3  Foam::PBiCGStab::scalarSolve(Foam::Field<double>&, Foam::Field<double> const&, unsigned char) const at ??:?
[2] #3  Foam::PBiCGStab::scalarSolve(Foam::Field<double>&, Foam::Field<double> const&, unsigned char) const at ??:?
[1] #4  Foam::PBiCGStab::solve(Foam::Field<double>&, Foam::Field<double> const&, unsigned char) const at ??:?
[0] #4  Foam::PBiCGStab::solve(Foam::Field<double>&, Foam::Field<double> const&, unsigned char) const at ??:?
[2] #4  Foam::PBiCGStab::solve(Foam::Field<double>&, Foam::Field<double> const&, unsigned char) const at ??:?
[3] #4  Foam::PBiCGStab::solve(Foam::Field<double>&, Foam::Field<double> const&, unsigned char) const at ??:?
[1] #5  Foam::fvMatrix<double>::solveSegregated(Foam::dictionary const&) at ??:?
[0] #5  Foam::fvMatrix<double>::solveSegregated(Foam::dictionary const&) at ??:?
[2] #5  Foam::fvMatrix<double>::solveSegregated(Foam::dictionary const&) at ??:?
[3] #5  Foam::fvMatrix<double>::solveSegregated(Foam::dictionary const&) at ??:?
[3] #6  Foam::fvMatrix<double>::solveSegregatedOrCoupled(Foam::dictionary const&) at ??:?
[1] #6  Foam::fvMatrix<double>::solveSegregatedOrCoupled(Foam::dictionary const&) at ??:?
[2] #6  Foam::fvMatrix<double>::solveSegregatedOrCoupled(Foam::dictionary const&) at ??:?
[0] #6  Foam::fvMatrix<double>::solveSegregatedOrCoupled(Foam::dictionary const&) at ??:?
[1] #7  Foam::fvMesh::solve(Foam::fvMatrix<double>&, Foam::dictionary const&) const at ??:?
[3] #7  Foam::fvMesh::solve(Foam::fvMatrix<double>&, Foam::dictionary const&) const at ??:?
[1] #8  Foam::fvMatrix<double>::solve() in /opt/OpenFOAM/OpenFOAM-v2006/platforms/linux64GccDPInt32Opt/bin/rhoPimpleFoam
[2] #7  Foam::fvMesh::solve(Foam::fvMatrix<double>&, Foam::dictionary const&) const at ??:?
[0] #7  Foam::fvMesh::solve(Foam::fvMatrix<double>&, Foam::dictionary const&) const at ??:?
[3] #8  Foam::fvMatrix<double>::solve() in /opt/OpenFOAM/OpenFOAM-v2006/platforms/linux64GccDPInt32Opt/bin/rhoPimpleFoam
[2] #8  Foam::fvMatrix<double>::solve() in /opt/OpenFOAM/OpenFOAM-v2006/platforms/linux64GccDPInt32Opt/bin/rhoPimpleFoam
[1] #9  ? in /opt/OpenFOAM/OpenFOAM-v2006/platforms/linux64GccDPInt32Opt/bin/rhoPimpleFoam
[0] #8  Foam::fvMatrix<double>::solve() in /opt/OpenFOAM/OpenFOAM-v2006/platforms/linux64GccDPInt32Opt/bin/rhoPimpleFoam
[3] #9  ? in /opt/OpenFOAM/OpenFOAM-v2006/platforms/linux64GccDPInt32Opt/bin/rhoPimpleFoam
[1] #10  __libc_start_main in /lib/x86_64-linux-gnu/libc.so.6
[2] #9  ? in /opt/OpenFOAM/OpenFOAM-v2006/platforms/linux64GccDPInt32Opt/bin/rhoPimpleFoam
[0] #9  ? in /opt/OpenFOAM/OpenFOAM-v2006/platforms/linux64GccDPInt32Opt/bin/rhoPimpleFoam
[3] #10  __libc_start_main in /lib/x86_64-linux-gnu/libc.so.6
[1] #11  ? in /opt/OpenFOAM/OpenFOAM-v2006/platforms/linux64GccDPInt32Opt/bin/rhoPimpleFoam
[2] #10  __libc_start_main in /lib/x86_64-linux-gnu/libc.so.6
[0] #10  __libc_start_main in /lib/x86_64-linux-gnu/libc.so.6
[3] #11  ? in /opt/OpenFOAM/OpenFOAM-v2006/platforms/linux64GccDPInt32Opt/bin/rhoPimpleFoam
[2] #11  ? in /opt/OpenFOAM/OpenFOAM-v2006/platforms/linux64GccDPInt32Opt/bin/rhoPimpleFoam
[0] #11  ? in /opt/OpenFOAM/OpenFOAM-v2006/platforms/linux64GccDPInt32Opt/bin/rhoPimpleFoam
srun: error: cas500: tasks 0-3: Floating point exception
srun: Terminating job step 9541094.0
