/*---------------------------------------------------------------------------*\
  =========                 |
  \\      /  F ield         | OpenFOAM: The Open Source CFD Toolbox
   \\    /   O peration     | Website:  https://openfoam.org
    \\  /    A nd           | Version:  7
     \\/     M anipulation  |
\*---------------------------------------------------------------------------*/
Build  : 7-83cd285f0e3f
Exec   : blockMesh
Date   : Jan 28 2022
Time   : 17:06:12
Host   : "login3.pi.sjtu.edu.cn"
PID    : 13925
I/O    : collated (maxThreadFileBufferSize 2e+09)
         Threading activated since maxThreadFileBufferSize > 0.
         Requires large enough buffer to collect all data or thread support 
         enabled in MPI. If thread support cannot be enabled, deactivate
         threading by setting maxThreadFileBufferSize to 0 in
         $FOAM_ETC/controlDict
Case   : /lustre/home/acct-medgm/medgm/05-NSCBC/Workspace/run/sod_shock_tube
nProcs : 1
sigFpe : Enabling floating point exception trapping (FOAM_SIGFPE).
fileModificationChecking : Monitoring run-time modified files using timeStamp (fileModificationSkew 10)
allowSystemOperations : Allowing user-supplied system call operations

// * * * * * * * * * * * * * * * * * * * * * * * * * * * * * * * * * * * * * //
Create time

Creating block mesh from
    "/lustre/home/acct-medgm/medgm/05-NSCBC/Workspace/run/sod_shock_tube/system/blockMeshDict"
Creating block edges
No non-planar block faces defined
Creating topology blocks
Creating topology patches

Creating block mesh topology

Check topology

	Basic statistics
		Number of internal faces : 0
		Number of boundary faces : 6
		Number of defined boundary faces : 6
		Number of undefined boundary faces : 0
	Checking patch -> block consistency

Creating block offsets
Creating merge list .

Creating polyMesh from blockMesh
Creating patches
Creating cells
Creating points with scale 1
    Block 0 cell size :
        i : 0.0002 .. 0.0002
        j : 0.2
        k : 0.2

Writing polyMesh
----------------
Mesh Information
----------------
  boundingBox: (0 0 0) (1 0.2 0.2)
  nPoints: 20004
  nCells: 5000
  nFaces: 25001
  nInternalFaces: 4999
----------------
Patches
----------------
  patch 0 (start: 4999 size: 1) name: leftSide
  patch 1 (start: 5000 size: 1) name: rightSide
  patch 2 (start: 5001 size: 20000) name: emptywalls

End

