pwd=/lustre/home/acct-medgm/medgm/05-NSCBC/Workspace/run/sineWaveDamping
About to execute the case
/*---------------------------------------------------------------------------*\
| =========                 |                                                 |
| \\      /  F ield         | OpenFOAM: The Open Source CFD Toolbox           |
|  \\    /   O peration     | Version:  v2006                                 |
|   \\  /    A nd           | Website:  www.openfoam.com                      |
|    \\/     M anipulation  |                                                 |
\*---------------------------------------------------------------------------*/
Build  : _b45f8f6f58-20200629 OPENFOAM=2006
Arch   : "LSB;label=32;scalar=64"
Exec   : /opt/OpenFOAM/OpenFOAM-v2006/platforms/linux64GccDPInt32Opt/bin/rhoPimpleFoam -parallel
Date   : Feb 07 2022
Time   : 05:36:40
Host   : cas500.pi.sjtu.edu.cn
PID    : 1360
I/O    : collated (maxThreadFileBufferSize 0)
         Threading not activated since maxThreadFileBufferSize = 0.
         Writing may run slowly for large file sizes.
Case   : /lustre/home/acct-medgm/medgm/05-NSCBC/Workspace/run/sineWaveDamping
nProcs : 4
Hosts  :
(
    (cas500.pi.sjtu.edu.cn 4)
)
Pstream initialized with:
    floatTransfer      : 0
    nProcsSimpleSum    : 0
    commsType          : nonBlocking
    polling iterations : 0
trapFpe: Floating point exception trapping enabled (FOAM_SIGFPE).
fileModificationChecking : Monitoring run-time modified files using timeStamp (fileModificationSkew 5, maxFileModificationPolls 20)
allowSystemOperations : Allowing user-supplied system call operations

// * * * * * * * * * * * * * * * * * * * * * * * * * * * * * * * * * * * * * //
Create time

Create mesh for time = 0


PIMPLE: no residual control data found. Calculations will employ 7 corrector loops

Reading thermophysical properties

Selecting thermodynamics package 
{
    type            hePsiThermo;
    mixture         pureMixture;
    transport       sutherland;
    thermo          hConst;
    equationOfState perfectGas;
    specie          specie;
    energy          sensibleEnthalpy;
}

[0] 
[0] 
[0] --> FOAM FATAL IO ERROR: 
[0] cannot find file "/lustre/home/acct-medgm/medgm/05-NSCBC/Workspace/run/sineWaveDamping/processor0/0/p"
[0] 
[0]     From static Foam::autoPtr<Foam::ISstream> Foam::fileOperations::masterUncollatedFileOperation::read(Foam::IOobject&, Foam::label, bool, const fileNameList&, const boolList&)
[0]     in file global/fileOperations/masterUncollatedFileOperation/masterUncollatedFileOperation.C at line 595.
[0] 
FOAM parallel run exiting
[0] 
application called MPI_Abort(MPI_COMM_WORLD, 1) - process 0
srun: error: cas500: task 0: Exited with exit code 1
srun: Terminating job step 9543505.0
slurmstepd: error: *** STEP 9543505.0 ON cas500 CANCELLED AT 2022-02-07T05:36:40 ***
srun: error: cas500: tasks 1-3: Terminated
srun: Force Terminated job step 9543505.0
Execution finished
Script done
